MODEL 1
REMARK VINA RESULT:      -3.4      0.000      0.000
REMARK  6 active torsions:
REMARK  status: ('A' for Active; 'I' for Inactive)
REMARK    1  A    between atoms: N_1  and  C_2 
REMARK    2  A    between atoms: N_1  and  C_4 
REMARK    3  A    between atoms: C_4  and  C_5 
REMARK    4  A    between atoms: C_4  and  C_9 
REMARK    5  A    between atoms: C_5  and  C_6 
REMARK    6  A    between atoms: C_6  and  S_7 
ROOT
HETATM    1  C   UNK     0      12.757   7.839  13.429  0.00  0.00     0.218 C 
ENDROOT
BRANCH   1   2
HETATM    2  N   UNK     0      11.265   8.152  13.640  0.00  0.00    -0.264 NA
BRANCH   2   3
HETATM    3  C   UNK     0      10.192   7.206  13.069  0.00  0.00     0.304 C 
HETATM    4  O   UNK     0       9.501   6.181  13.988  0.00  0.00    -0.192 OA
ENDBRANCH   2   3
ENDBRANCH   1   2
BRANCH   1   5
HETATM    5  C   UNK     0      13.523   8.488  12.261  0.00  0.00     0.037 C 
BRANCH   5   6
HETATM    6  C   UNK     0      13.020   9.809  11.650  0.00  0.00     0.059 C 
BRANCH   6   7
HETATM    7  S   UNK     0      13.613  10.319  10.324  0.00  0.00    -0.139 SA
HETATM    8  C   UNK     0      14.657   9.472   9.571  0.00  0.00     0.069 C 
ENDBRANCH   6   7
ENDBRANCH   5   6
ENDBRANCH   1   5
BRANCH   1   9
HETATM    9  C   UNK     0      13.485   6.877  14.387  0.00  0.00     0.199 C 
HETATM   10  O   UNK     0      12.716   5.715  15.043  0.00  0.00    -0.646 OA
HETATM   11  O   UNK     0      14.982   7.077  14.688  0.00  0.00    -0.646 OA
ENDBRANCH   1   9
TORSDOF 6
ENDMDL
MODEL 2
REMARK VINA RESULT:      -3.2      2.652      3.489
REMARK  6 active torsions:
REMARK  status: ('A' for Active; 'I' for Inactive)
REMARK    1  A    between atoms: N_1  and  C_2 
REMARK    2  A    between atoms: N_1  and  C_4 
REMARK    3  A    between atoms: C_4  and  C_5 
REMARK    4  A    between atoms: C_4  and  C_9 
REMARK    5  A    between atoms: C_5  and  C_6 
REMARK    6  A    between atoms: C_6  and  S_7 
ROOT
HETATM    1  C   UNK     0      12.480   7.331  13.194  0.00  0.00     0.218 C 
ENDROOT
BRANCH   1   2
HETATM    2  N   UNK     0      11.911   5.923  13.444  0.00  0.00    -0.264 NA
BRANCH   2   3
HETATM    3  C   UNK     0      10.734   5.730  14.418  0.00  0.00     0.304 C 
HETATM    4  O   UNK     0       9.304   6.099  13.981  0.00  0.00    -0.192 OA
ENDBRANCH   2   3
ENDBRANCH   1   2
BRANCH   1   5
HETATM    5  C   UNK     0      11.526   8.528  13.020  0.00  0.00     0.037 C 
BRANCH   5   6
HETATM    6  C   UNK     0      11.209   9.441  14.220  0.00  0.00     0.059 C 
BRANCH   6   7
HETATM    7  S   UNK     0       9.748   9.683  14.638  0.00  0.00    -0.139 SA
HETATM    8  C   UNK     0       8.624   9.609  13.588  0.00  0.00     0.069 C 
ENDBRANCH   6   7
ENDBRANCH   5   6
ENDBRANCH   1   5
BRANCH   1   9
HETATM    9  C   UNK     0      14.004   7.544  13.116  0.00  0.00     0.199 C 
HETATM   10  O   UNK     0      14.610   8.355  11.955  0.00  0.00    -0.646 OA
HETATM   11  O   UNK     0      14.921   6.947  14.199  0.00  0.00    -0.646 OA
ENDBRANCH   1   9
TORSDOF 6
ENDMDL
MODEL 3
REMARK VINA RESULT:      -3.2      1.581      3.399
REMARK  6 active torsions:
REMARK  status: ('A' for Active; 'I' for Inactive)
REMARK    1  A    between atoms: N_1  and  C_2 
REMARK    2  A    between atoms: N_1  and  C_4 
REMARK    3  A    between atoms: C_4  and  C_5 
REMARK    4  A    between atoms: C_4  and  C_9 
REMARK    5  A    between atoms: C_5  and  C_6 
REMARK    6  A    between atoms: C_6  and  S_7 
ROOT
HETATM    1  C   UNK     0      11.784   7.343  13.605  0.00  0.00     0.218 C 
ENDROOT
BRANCH   1   2
HETATM    2  N   UNK     0      13.069   6.496  13.568  0.00  0.00    -0.264 NA
BRANCH   2   3
HETATM    3  C   UNK     0      14.445   7.179  13.681  0.00  0.00     0.304 C 
HETATM    4  O   UNK     0      14.996   7.579  15.062  0.00  0.00    -0.192 OA
ENDBRANCH   2   3
ENDBRANCH   1   2
BRANCH   1   5
HETATM    5  C   UNK     0      11.876   8.878  13.694  0.00  0.00     0.037 C 
BRANCH   5   6
HETATM    6  C   UNK     0      11.765   9.732  12.417  0.00  0.00     0.059 C 
BRANCH   6   7
HETATM    7  S   UNK     0      13.031  10.334  11.782  0.00  0.00    -0.139 SA
HETATM    8  C   UNK     0      13.998   9.434  10.989  0.00  0.00     0.069 C 
ENDBRANCH   6   7
ENDBRANCH   5   6
ENDBRANCH   1   5
BRANCH   1   9
HETATM    9  C   UNK     0      10.407   6.655  13.553  0.00  0.00     0.199 C 
HETATM   10  O   UNK     0       9.215   7.369  12.887  0.00  0.00    -0.646 OA
HETATM   11  O   UNK     0      10.221   5.256  14.166  0.00  0.00    -0.646 OA
ENDBRANCH   1   9
TORSDOF 6
ENDMDL
MODEL 4
REMARK VINA RESULT:      -3.2      2.782      4.523
REMARK  6 active torsions:
REMARK  status: ('A' for Active; 'I' for Inactive)
REMARK    1  A    between atoms: N_1  and  C_2 
REMARK    2  A    between atoms: N_1  and  C_4 
REMARK    3  A    between atoms: C_4  and  C_5 
REMARK    4  A    between atoms: C_4  and  C_9 
REMARK    5  A    between atoms: C_5  and  C_6 
REMARK    6  A    between atoms: C_6  and  S_7 
ROOT
HETATM    1  C   UNK     0      12.760   7.786  13.320  0.00  0.00     0.218 C 
ENDROOT
BRANCH   1   2
HETATM    2  N   UNK     0      13.528   8.366  12.119  0.00  0.00    -0.264 NA
BRANCH   2   3
HETATM    3  C   UNK     0      13.135   9.740  11.545  0.00  0.00     0.304 C 
HETATM    4  O   UNK     0      14.097  10.483  10.599  0.00  0.00    -0.192 OA
ENDBRANCH   2   3
ENDBRANCH   1   2
BRANCH   1   5
HETATM    5  C   UNK     0      11.259   8.088  13.494  0.00  0.00     0.037 C 
BRANCH   5   6
HETATM    6  C   UNK     0      10.208   7.048  13.062  0.00  0.00     0.059 C 
BRANCH   6   7
HETATM    7  S   UNK     0       8.719   7.434  13.011  0.00  0.00    -0.139 SA
HETATM    8  C   UNK     0       7.936   7.656  14.319  0.00  0.00     0.069 C 
ENDBRANCH   6   7
ENDBRANCH   5   6
ENDBRANCH   1   5
BRANCH   1   9
HETATM    9  C   UNK     0      13.491   6.902  14.348  0.00  0.00     0.199 C 
HETATM   10  O   UNK     0      14.946   7.220  14.739  0.00  0.00    -0.646 OA
HETATM   11  O   UNK     0      12.767   5.702  14.985  0.00  0.00    -0.646 OA
ENDBRANCH   1   9
TORSDOF 6
ENDMDL
MODEL 5
REMARK VINA RESULT:      -3.1      2.797      4.311
REMARK  6 active torsions:
REMARK  status: ('A' for Active; 'I' for Inactive)
REMARK    1  A    between atoms: N_1  and  C_2 
REMARK    2  A    between atoms: N_1  and  C_4 
REMARK    3  A    between atoms: C_4  and  C_5 
REMARK    4  A    between atoms: C_4  and  C_9 
REMARK    5  A    between atoms: C_5  and  C_6 
REMARK    6  A    between atoms: C_6  and  S_7 
ROOT
HETATM    1  C   UNK     0      10.882   7.252  13.623  0.00  0.00     0.218 C 
ENDROOT
BRANCH   1   2
HETATM    2  N   UNK     0      11.516   8.654  13.593  0.00  0.00    -0.264 NA
BRANCH   2   3
HETATM    3  C   UNK     0      12.391   9.079  12.399  0.00  0.00     0.304 C 
HETATM    4  O   UNK     0      13.698   8.323  12.094  0.00  0.00    -0.192 OA
ENDBRANCH   2   3
ENDBRANCH   1   2
BRANCH   1   5
HETATM    5  C   UNK     0       9.573   6.983  12.857  0.00  0.00     0.037 C 
BRANCH   5   6
HETATM    6  C   UNK     0       8.225   7.427  13.456  0.00  0.00     0.059 C 
BRANCH   6   7
HETATM    7  S   UNK     0       7.408   8.537  12.772  0.00  0.00    -0.139 SA
HETATM    8  C   UNK     0       7.980   9.964  12.672  0.00  0.00     0.069 C 
ENDBRANCH   6   7
ENDBRANCH   5   6
ENDBRANCH   1   5
BRANCH   1   9
HETATM    9  C   UNK     0      11.557   6.118  14.417  0.00  0.00     0.199 C 
HETATM   10  O   UNK     0      10.715   4.941  14.944  0.00  0.00    -0.646 OA
HETATM   11  O   UNK     0      13.072   6.161  14.685  0.00  0.00    -0.646 OA
ENDBRANCH   1   9
TORSDOF 6
ENDMDL
MODEL 6
REMARK VINA RESULT:      -3.1      2.184      2.831
REMARK  6 active torsions:
REMARK  status: ('A' for Active; 'I' for Inactive)
REMARK    1  A    between atoms: N_1  and  C_2 
REMARK    2  A    between atoms: N_1  and  C_4 
REMARK    3  A    between atoms: C_4  and  C_5 
REMARK    4  A    between atoms: C_4  and  C_9 
REMARK    5  A    between atoms: C_5  and  C_6 
REMARK    6  A    between atoms: C_6  and  S_7 
ROOT
HETATM    1  C   UNK     0      13.109   7.412  13.725  0.00  0.00     0.218 C 
ENDROOT
BRANCH   1   2
HETATM    2  N   UNK     0      13.197   6.210  14.682  0.00  0.00    -0.264 NA
BRANCH   2   3
HETATM    3  C   UNK     0      11.922   5.434  15.062  0.00  0.00     0.304 C 
HETATM    4  O   UNK     0      10.964   4.939  13.962  0.00  0.00    -0.192 OA
ENDBRANCH   2   3
ENDBRANCH   1   2
BRANCH   1   5
HETATM    5  C   UNK     0      14.246   7.683  12.721  0.00  0.00     0.037 C 
BRANCH   5   6
HETATM    6  C   UNK     0      14.118   8.832  11.704  0.00  0.00     0.059 C 
BRANCH   6   7
HETATM    7  S   UNK     0      14.919  10.131  11.906  0.00  0.00    -0.139 SA
HETATM    8  C   UNK     0      14.432  11.188  12.914  0.00  0.00     0.069 C 
ENDBRANCH   6   7
ENDBRANCH   5   6
ENDBRANCH   1   5
BRANCH   1   9
HETATM    9  C   UNK     0      11.885   8.345  13.771  0.00  0.00     0.199 C 
HETATM   10  O   UNK     0      11.865   9.542  14.740  0.00  0.00    -0.646 OA
HETATM   11  O   UNK     0      10.681   8.082  12.848  0.00  0.00    -0.646 OA
ENDBRANCH   1   9
TORSDOF 6
ENDMDL
MODEL 7
REMARK VINA RESULT:      -3.0      1.402      3.401
REMARK  6 active torsions:
REMARK  status: ('A' for Active; 'I' for Inactive)
REMARK    1  A    between atoms: N_1  and  C_2 
REMARK    2  A    between atoms: N_1  and  C_4 
REMARK    3  A    between atoms: C_4  and  C_5 
REMARK    4  A    between atoms: C_4  and  C_9 
REMARK    5  A    between atoms: C_5  and  C_6 
REMARK    6  A    between atoms: C_6  and  S_7 
ROOT
HETATM    1  C   UNK     0      11.004   7.728  13.234  0.00  0.00     0.218 C 
ENDROOT
BRANCH   1   2
HETATM    2  N   UNK     0      11.904   6.516  13.534  0.00  0.00    -0.264 NA
BRANCH   2   3
HETATM    3  C   UNK     0      12.649   6.424  14.879  0.00  0.00     0.304 C 
HETATM    4  O   UNK     0      14.004   7.133  15.059  0.00  0.00    -0.192 OA
ENDBRANCH   2   3
ENDBRANCH   1   2
BRANCH   1   5
HETATM    5  C   UNK     0      11.635   9.090  12.891  0.00  0.00     0.037 C 
BRANCH   5   6
HETATM    6  C   UNK     0      12.964   9.149  12.113  0.00  0.00     0.059 C 
BRANCH   6   7
HETATM    7  S   UNK     0      13.233  10.308  11.136  0.00  0.00    -0.139 SA
HETATM    8  C   UNK     0      14.092  10.072   9.880  0.00  0.00     0.069 C 
ENDBRANCH   6   7
ENDBRANCH   5   6
ENDBRANCH   1   5
BRANCH   1   9
HETATM    9  C   UNK     0       9.471   7.579  13.278  0.00  0.00     0.199 C 
HETATM   10  O   UNK     0       8.837   6.326  13.911  0.00  0.00    -0.646 OA
HETATM   11  O   UNK     0       8.573   8.683  12.691  0.00  0.00    -0.646 OA
ENDBRANCH   1   9
TORSDOF 6
ENDMDL
MODEL 8
REMARK VINA RESULT:      -3.0      2.805      4.100
REMARK  6 active torsions:
REMARK  status: ('A' for Active; 'I' for Inactive)
REMARK    1  A    between atoms: N_1  and  C_2 
REMARK    2  A    between atoms: N_1  and  C_4 
REMARK    3  A    between atoms: C_4  and  C_5 
REMARK    4  A    between atoms: C_4  and  C_9 
REMARK    5  A    between atoms: C_5  and  C_6 
REMARK    6  A    between atoms: C_6  and  S_7 
ROOT
HETATM    1  C   UNK     0      13.458   8.646  13.217  0.00  0.00     0.218 C 
ENDROOT
BRANCH   1   2
HETATM    2  N   UNK     0      14.472   9.252  12.230  0.00  0.00    -0.264 NA
BRANCH   2   3
HETATM    3  C   UNK     0      14.031   9.617  10.800  0.00  0.00     0.304 C 
HETATM    4  O   UNK     0      14.675   8.912   9.592  0.00  0.00    -0.192 OA
ENDBRANCH   2   3
ENDBRANCH   1   2
BRANCH   1   5
HETATM    5  C   UNK     0      12.210   9.449  13.629  0.00  0.00     0.037 C 
BRANCH   5   6
HETATM    6  C   UNK     0      10.857   9.176  12.944  0.00  0.00     0.059 C 
BRANCH   6   7
HETATM    7  S   UNK     0       9.786   8.336  13.664  0.00  0.00    -0.139 SA
HETATM    8  C   UNK     0       9.183   7.101  12.970  0.00  0.00     0.069 C 
ENDBRANCH   6   7
ENDBRANCH   5   6
ENDBRANCH   1   5
BRANCH   1   9
HETATM    9  C   UNK     0      13.691   7.237  13.793  0.00  0.00     0.199 C 
HETATM   10  O   UNK     0      12.632   6.137  13.589  0.00  0.00    -0.646 OA
HETATM   11  O   UNK     0      14.982   6.927  14.572  0.00  0.00    -0.646 OA
ENDBRANCH   1   9
TORSDOF 6
ENDMDL
MODEL 9
REMARK VINA RESULT:      -2.8      3.120      4.640
REMARK  6 active torsions:
REMARK  status: ('A' for Active; 'I' for Inactive)
REMARK    1  A    between atoms: N_1  and  C_2 
REMARK    2  A    between atoms: N_1  and  C_4 
REMARK    3  A    between atoms: C_4  and  C_5 
REMARK    4  A    between atoms: C_4  and  C_9 
REMARK    5  A    between atoms: C_5  and  C_6 
REMARK    6  A    between atoms: C_6  and  S_7 
ROOT
HETATM    1  C   UNK     0      13.710   7.832  13.805  0.00  0.00     0.218 C 
ENDROOT
BRANCH   1   2
HETATM    2  N   UNK     0      14.262   7.779  12.369  0.00  0.00    -0.264 NA
BRANCH   2   3
HETATM    3  C   UNK     0      14.113   8.999  11.441  0.00  0.00     0.304 C 
HETATM    4  O   UNK     0      14.568   8.911   9.972  0.00  0.00    -0.192 OA
ENDBRANCH   2   3
ENDBRANCH   1   2
BRANCH   1   5
HETATM    5  C   UNK     0      13.147   6.557  14.461  0.00  0.00     0.037 C 
BRANCH   5   6
HETATM    6  C   UNK     0      11.630   6.414  14.688  0.00  0.00     0.059 C 
BRANCH   6   7
HETATM    7  S   UNK     0      10.721   5.938  13.540  0.00  0.00    -0.139 SA
HETATM    8  C   UNK     0       9.649   6.883  12.965  0.00  0.00     0.069 C 
ENDBRANCH   6   7
ENDBRANCH   5   6
ENDBRANCH   1   5
BRANCH   1   9
HETATM    9  C   UNK     0      13.722   9.159  14.586  0.00  0.00     0.199 C 
HETATM   10  O   UNK     0      15.061   9.799  14.996  0.00  0.00    -0.646 OA
HETATM   11  O   UNK     0      12.395   9.846  14.957  0.00  0.00    -0.646 OA
ENDBRANCH   1   9
TORSDOF 6
ENDMDL
