MODEL 1
REMARK VINA RESULT:      -3.6      0.000      0.000
REMARK  6 active torsions:
REMARK  status: ('A' for Active; 'I' for Inactive)
REMARK    1  A    between atoms: N_1  and  C_2 
REMARK    2  A    between atoms: N_1  and  C_4 
REMARK    3  A    between atoms: C_4  and  C_5 
REMARK    4  A    between atoms: C_4  and  C_9 
REMARK    5  A    between atoms: C_5  and  C_6 
REMARK    6  A    between atoms: C_6  and  S_7 
ROOT
HETATM    1  C   UNK     0       3.268   2.507   1.483  0.00  0.00     0.218 C 
ENDROOT
BRANCH   1   2
HETATM    2  N   UNK     0       4.659   3.162   1.414  0.00  0.00    -0.264 NA
BRANCH   2   3
HETATM    3  C   UNK     0       4.796   4.693   1.507  0.00  0.00     0.304 C 
HETATM    4  O   UNK     0       5.070   5.361   2.867  0.00  0.00    -0.192 OA
ENDBRANCH   2   3
ENDBRANCH   1   2
BRANCH   1   5
HETATM    5  C   UNK     0       2.974   1.432   2.546  0.00  0.00     0.037 C 
BRANCH   5   6
HETATM    6  C   UNK     0       2.349   1.833   3.895  0.00  0.00     0.059 C 
BRANCH   6   7
HETATM    7  S   UNK     0       2.304   3.314   4.312  0.00  0.00    -0.139 SA
HETATM    8  C   UNK     0       3.073   3.786   5.561  0.00  0.00     0.069 C 
ENDBRANCH   6   7
ENDBRANCH   5   6
ENDBRANCH   1   5
BRANCH   1   9
HETATM    9  C   UNK     0       2.169   2.928   0.489  0.00  0.00     0.199 C 
HETATM   10  O   UNK     0       2.554   3.541  -0.870  0.00  0.00    -0.646 OA
HETATM   11  O   UNK     0       0.686   2.734   0.853  0.00  0.00    -0.646 OA
ENDBRANCH   1   9
TORSDOF 6
ENDMDL
MODEL 2
REMARK VINA RESULT:      -3.5      2.277      2.804
REMARK  6 active torsions:
REMARK  status: ('A' for Active; 'I' for Inactive)
REMARK    1  A    between atoms: N_1  and  C_2 
REMARK    2  A    between atoms: N_1  and  C_4 
REMARK    3  A    between atoms: C_4  and  C_5 
REMARK    4  A    between atoms: C_4  and  C_9 
REMARK    5  A    between atoms: C_5  and  C_6 
REMARK    6  A    between atoms: C_6  and  S_7 
ROOT
HETATM    1  C   UNK     0       2.873   2.748   3.806  0.00  0.00     0.218 C 
ENDROOT
BRANCH   1   2
HETATM    2  N   UNK     0       3.404   4.072   4.382  0.00  0.00    -0.264 NA
BRANCH   2   3
HETATM    3  C   UNK     0       3.680   5.264   3.446  0.00  0.00     0.304 C 
HETATM    4  O   UNK     0       5.077   5.450   2.825  0.00  0.00    -0.192 OA
ENDBRANCH   2   3
ENDBRANCH   1   2
BRANCH   1   5
HETATM    5  C   UNK     0       2.410   1.626   4.755  0.00  0.00     0.037 C 
BRANCH   5   6
HETATM    6  C   UNK     0       1.040   1.724   5.453  0.00  0.00     0.059 C 
BRANCH   6   7
HETATM    7  S   UNK     0      -0.032   0.649   5.198  0.00  0.00    -0.139 SA
HETATM    8  C   UNK     0      -0.447   0.302   3.756  0.00  0.00     0.069 C 
ENDBRANCH   6   7
ENDBRANCH   5   6
ENDBRANCH   1   5
BRANCH   1   9
HETATM    9  C   UNK     0       2.804   2.543   2.281  0.00  0.00     0.199 C 
HETATM   10  O   UNK     0       4.099   2.531   1.447  0.00  0.00    -0.646 OA
HETATM   11  O   UNK     0       1.441   2.352   1.591  0.00  0.00    -0.646 OA
ENDBRANCH   1   9
TORSDOF 6
ENDMDL
MODEL 3
REMARK VINA RESULT:      -3.4      2.073      2.712
REMARK  6 active torsions:
REMARK  status: ('A' for Active; 'I' for Inactive)
REMARK    1  A    between atoms: N_1  and  C_2 
REMARK    2  A    between atoms: N_1  and  C_4 
REMARK    3  A    between atoms: C_4  and  C_5 
REMARK    4  A    between atoms: C_4  and  C_9 
REMARK    5  A    between atoms: C_5  and  C_6 
REMARK    6  A    between atoms: C_6  and  S_7 
ROOT
HETATM    1  C   UNK     0       3.900   3.338   1.847  0.00  0.00     0.218 C 
ENDROOT
BRANCH   1   2
HETATM    2  N   UNK     0       5.197   3.543   1.043  0.00  0.00    -0.264 NA
BRANCH   2   3
HETATM    3  C   UNK     0       5.647   4.965   0.658  0.00  0.00     0.304 C 
HETATM    4  O   UNK     0       6.254   5.231  -0.732  0.00  0.00    -0.192 OA
ENDBRANCH   2   3
ENDBRANCH   1   2
BRANCH   1   5
HETATM    5  C   UNK     0       3.187   1.973   1.823  0.00  0.00     0.037 C 
BRANCH   5   6
HETATM    6  C   UNK     0       1.725   1.859   2.292  0.00  0.00     0.059 C 
BRANCH   6   7
HETATM    7  S   UNK     0       1.410   1.393   3.725  0.00  0.00    -0.139 SA
HETATM    8  C   UNK     0       2.514   1.408   4.799  0.00  0.00     0.069 C 
ENDBRANCH   6   7
ENDBRANCH   5   6
ENDBRANCH   1   5
BRANCH   1   9
HETATM    9  C   UNK     0       3.315   4.497   2.674  0.00  0.00     0.199 C 
HETATM   10  O   UNK     0       3.719   4.671   4.150  0.00  0.00    -0.646 OA
HETATM   11  O   UNK     0       2.325   5.483   2.027  0.00  0.00    -0.646 OA
ENDBRANCH   1   9
TORSDOF 6
ENDMDL
MODEL 4
REMARK VINA RESULT:      -3.4      1.432      1.709
REMARK  6 active torsions:
REMARK  status: ('A' for Active; 'I' for Inactive)
REMARK    1  A    between atoms: N_1  and  C_2 
REMARK    2  A    between atoms: N_1  and  C_4 
REMARK    3  A    between atoms: C_4  and  C_5 
REMARK    4  A    between atoms: C_4  and  C_9 
REMARK    5  A    between atoms: C_5  and  C_6 
REMARK    6  A    between atoms: C_6  and  S_7 
ROOT
HETATM    1  C   UNK     0       3.298   2.705   1.383  0.00  0.00     0.218 C 
ENDROOT
BRANCH   1   2
HETATM    2  N   UNK     0       4.718   3.297   1.430  0.00  0.00    -0.264 NA
BRANCH   2   3
HETATM    3  C   UNK     0       5.053   4.559   0.613  0.00  0.00     0.304 C 
HETATM    4  O   UNK     0       6.389   5.291   0.840  0.00  0.00    -0.192 OA
ENDBRANCH   2   3
ENDBRANCH   1   2
BRANCH   1   5
HETATM    5  C   UNK     0       2.949   1.471   2.237  0.00  0.00     0.037 C 
BRANCH   5   6
HETATM    6  C   UNK     0       2.599   1.639   3.727  0.00  0.00     0.059 C 
BRANCH   6   7
HETATM    7  S   UNK     0       1.156   1.976   4.146  0.00  0.00    -0.139 SA
HETATM    8  C   UNK     0       0.203   0.854   4.597  0.00  0.00     0.069 C 
ENDBRANCH   6   7
ENDBRANCH   5   6
ENDBRANCH   1   5
BRANCH   1   9
HETATM    9  C   UNK     0       2.225   3.347   0.484  0.00  0.00     0.199 C 
HETATM   10  O   UNK     0       2.071   2.888  -0.978  0.00  0.00    -0.646 OA
HETATM   11  O   UNK     0       1.306   4.447   1.046  0.00  0.00    -0.646 OA
ENDBRANCH   1   9
TORSDOF 6
ENDMDL
MODEL 5
REMARK VINA RESULT:      -3.4      1.795      2.168
REMARK  6 active torsions:
REMARK  status: ('A' for Active; 'I' for Inactive)
REMARK    1  A    between atoms: N_1  and  C_2 
REMARK    2  A    between atoms: N_1  and  C_4 
REMARK    3  A    between atoms: C_4  and  C_5 
REMARK    4  A    between atoms: C_4  and  C_9 
REMARK    5  A    between atoms: C_5  and  C_6 
REMARK    6  A    between atoms: C_6  and  S_7 
ROOT
HETATM    1  C   UNK     0       3.668   3.320   1.896  0.00  0.00     0.218 C 
ENDROOT
BRANCH   1   2
HETATM    2  N   UNK     0       5.079   3.426   1.290  0.00  0.00    -0.264 NA
BRANCH   2   3
HETATM    3  C   UNK     0       5.488   4.688   0.507  0.00  0.00     0.304 C 
HETATM    4  O   UNK     0       6.302   5.796   1.202  0.00  0.00    -0.192 OA
ENDBRANCH   2   3
ENDBRANCH   1   2
BRANCH   1   5
HETATM    5  C   UNK     0       3.062   4.520   2.650  0.00  0.00     0.037 C 
BRANCH   5   6
HETATM    6  C   UNK     0       3.363   4.721   4.147  0.00  0.00     0.059 C 
BRANCH   6   7
HETATM    7  S   UNK     0       2.578   3.924   5.204  0.00  0.00    -0.139 SA
HETATM    8  C   UNK     0       1.160   3.413   4.886  0.00  0.00     0.069 C 
ENDBRANCH   6   7
ENDBRANCH   5   6
ENDBRANCH   1   5
BRANCH   1   9
HETATM    9  C   UNK     0       2.862   2.016   1.751  0.00  0.00     0.199 C 
HETATM   10  O   UNK     0       2.080   1.735   0.454  0.00  0.00    -0.646 OA
HETATM   11  O   UNK     0       2.839   0.993   2.900  0.00  0.00    -0.646 OA
ENDBRANCH   1   9
TORSDOF 6
ENDMDL
MODEL 6
REMARK VINA RESULT:      -3.4      1.978      3.548
REMARK  6 active torsions:
REMARK  status: ('A' for Active; 'I' for Inactive)
REMARK    1  A    between atoms: N_1  and  C_2 
REMARK    2  A    between atoms: N_1  and  C_4 
REMARK    3  A    between atoms: C_4  and  C_5 
REMARK    4  A    between atoms: C_4  and  C_9 
REMARK    5  A    between atoms: C_5  and  C_6 
REMARK    6  A    between atoms: C_6  and  S_7 
ROOT
HETATM    1  C   UNK     0       2.597   2.365   2.426  0.00  0.00     0.218 C 
ENDROOT
BRANCH   1   2
HETATM    2  N   UNK     0       1.463   2.498   1.393  0.00  0.00    -0.264 NA
BRANCH   2   3
HETATM    3  C   UNK     0       1.726   2.163  -0.087  0.00  0.00     0.304 C 
HETATM    4  O   UNK     0       2.225   3.259  -1.048  0.00  0.00    -0.192 OA
ENDBRANCH   2   3
ENDBRANCH   1   2
BRANCH   1   5
HETATM    5  C   UNK     0       2.564   1.227   3.463  0.00  0.00     0.037 C 
BRANCH   5   6
HETATM    6  C   UNK     0       2.008   1.487   4.875  0.00  0.00     0.059 C 
BRANCH   6   7
HETATM    7  S   UNK     0       0.494   1.393   5.136  0.00  0.00    -0.139 SA
HETATM    8  C   UNK     0      -0.399   0.563   4.194  0.00  0.00     0.069 C 
ENDBRANCH   6   7
ENDBRANCH   5   6
ENDBRANCH   1   5
BRANCH   1   9
HETATM    9  C   UNK     0       3.764   3.370   2.422  0.00  0.00     0.199 C 
HETATM   10  O   UNK     0       3.848   4.456   3.511  0.00  0.00    -0.646 OA
HETATM   11  O   UNK     0       4.846   3.289   1.331  0.00  0.00    -0.646 OA
ENDBRANCH   1   9
TORSDOF 6
ENDMDL
MODEL 7
REMARK VINA RESULT:      -3.4      2.648      3.800
REMARK  6 active torsions:
REMARK  status: ('A' for Active; 'I' for Inactive)
REMARK    1  A    between atoms: N_1  and  C_2 
REMARK    2  A    between atoms: N_1  and  C_4 
REMARK    3  A    between atoms: C_4  and  C_5 
REMARK    4  A    between atoms: C_4  and  C_9 
REMARK    5  A    between atoms: C_5  and  C_6 
REMARK    6  A    between atoms: C_6  and  S_7 
ROOT
HETATM    1  C   UNK     0       3.329   2.601   1.867  0.00  0.00     0.218 C 
ENDROOT
BRANCH   1   2
HETATM    2  N   UNK     0       4.662   3.271   1.488  0.00  0.00    -0.264 NA
BRANCH   2   3
HETATM    3  C   UNK     0       4.762   4.807   1.428  0.00  0.00     0.304 C 
HETATM    4  O   UNK     0       5.331   5.589   2.628  0.00  0.00    -0.192 OA
ENDBRANCH   2   3
ENDBRANCH   1   2
BRANCH   1   5
HETATM    5  C   UNK     0       2.393   2.071   0.764  0.00  0.00     0.037 C 
BRANCH   5   6
HETATM    6  C   UNK     0       0.887   2.393   0.811  0.00  0.00     0.059 C 
BRANCH   6   7
HETATM    7  S   UNK     0      -0.001   2.098  -0.411  0.00  0.00    -0.139 SA
HETATM    8  C   UNK     0       0.328   0.910  -1.334  0.00  0.00     0.069 C 
ENDBRANCH   6   7
ENDBRANCH   5   6
ENDBRANCH   1   5
BRANCH   1   9
HETATM    9  C   UNK     0       2.931   2.460   3.348  0.00  0.00     0.199 C 
HETATM   10  O   UNK     0       3.314   3.560   4.356  0.00  0.00    -0.646 OA
HETATM   11  O   UNK     0       2.150   1.221   3.821  0.00  0.00    -0.646 OA
ENDBRANCH   1   9
TORSDOF 6
ENDMDL
MODEL 8
REMARK VINA RESULT:      -3.3      2.147      2.828
REMARK  6 active torsions:
REMARK  status: ('A' for Active; 'I' for Inactive)
REMARK    1  A    between atoms: N_1  and  C_2 
REMARK    2  A    between atoms: N_1  and  C_4 
REMARK    3  A    between atoms: C_4  and  C_5 
REMARK    4  A    between atoms: C_4  and  C_9 
REMARK    5  A    between atoms: C_5  and  C_6 
REMARK    6  A    between atoms: C_6  and  S_7 
ROOT
HETATM    1  C   UNK     0       3.461   3.156   2.615  0.00  0.00     0.218 C 
ENDROOT
BRANCH   1   2
HETATM    2  N   UNK     0       3.625   4.092   3.826  0.00  0.00    -0.264 NA
BRANCH   2   3
HETATM    3  C   UNK     0       2.600   5.214   4.076  0.00  0.00     0.304 C 
HETATM    4  O   UNK     0       1.213   5.154   3.408  0.00  0.00    -0.192 OA
ENDBRANCH   2   3
ENDBRANCH   1   2
BRANCH   1   5
HETATM    5  C   UNK     0       2.677   1.838   2.760  0.00  0.00     0.037 C 
BRANCH   5   6
HETATM    6  C   UNK     0       2.173   1.390   4.145  0.00  0.00     0.059 C 
BRANCH   6   7
HETATM    7  S   UNK     0       0.725   1.694   4.571  0.00  0.00    -0.139 SA
HETATM    8  C   UNK     0      -0.086   0.639   5.346  0.00  0.00     0.069 C 
ENDBRANCH   6   7
ENDBRANCH   5   6
ENDBRANCH   1   5
BRANCH   1   9
HETATM    9  C   UNK     0       4.081   3.537   1.257  0.00  0.00     0.199 C 
HETATM   10  O   UNK     0       5.603   3.746   1.137  0.00  0.00    -0.646 OA
HETATM   11  O   UNK     0       3.181   3.710   0.021  0.00  0.00    -0.646 OA
ENDBRANCH   1   9
TORSDOF 6
ENDMDL
MODEL 9
REMARK VINA RESULT:      -3.1      2.873      3.622
REMARK  6 active torsions:
REMARK  status: ('A' for Active; 'I' for Inactive)
REMARK    1  A    between atoms: N_1  and  C_2 
REMARK    2  A    between atoms: N_1  and  C_4 
REMARK    3  A    between atoms: C_4  and  C_5 
REMARK    4  A    between atoms: C_4  and  C_9 
REMARK    5  A    between atoms: C_5  and  C_6 
REMARK    6  A    between atoms: C_6  and  S_7 
ROOT
HETATM    1  C   UNK     0       2.463   2.018   2.914  0.00  0.00     0.218 C 
ENDROOT
BRANCH   1   2
HETATM    2  N   UNK     0       3.540   2.071   1.816  0.00  0.00    -0.264 NA
BRANCH   2   3
HETATM    3  C   UNK     0       4.051   3.430   1.303  0.00  0.00     0.304 C 
HETATM    4  O   UNK     0       5.565   3.689   1.181  0.00  0.00    -0.192 OA
ENDBRANCH   2   3
ENDBRANCH   1   2
BRANCH   1   5
HETATM    5  C   UNK     0       1.006   1.675   2.547  0.00  0.00     0.037 C 
BRANCH   5   6
HETATM    6  C   UNK     0      -0.156   2.333   3.313  0.00  0.00     0.059 C 
BRANCH   6   7
HETATM    7  S   UNK     0      -0.458   3.830   3.117  0.00  0.00    -0.139 SA
HETATM    8  C   UNK     0      -1.644   4.480   3.854  0.00  0.00     0.069 C 
ENDBRANCH   6   7
ENDBRANCH   5   6
ENDBRANCH   1   5
BRANCH   1   9
HETATM    9  C   UNK     0       2.840   2.307   4.378  0.00  0.00     0.199 C 
HETATM   10  O   UNK     0       2.667   1.213   5.449  0.00  0.00    -0.646 OA
HETATM   11  O   UNK     0       3.390   3.690   4.773  0.00  0.00    -0.646 OA
ENDBRANCH   1   9
TORSDOF 6
ENDMDL
