MODEL 1
REMARK VINA RESULT:      -4.4      0.000      0.000
REMARK  6 active torsions:
REMARK  status: ('A' for Active; 'I' for Inactive)
REMARK    1  A    between atoms: N_1  and  C_2 
REMARK    2  A    between atoms: N_1  and  C_4 
REMARK    3  A    between atoms: C_4  and  C_5 
REMARK    4  A    between atoms: C_4  and  C_9 
REMARK    5  A    between atoms: C_5  and  C_6 
REMARK    6  A    between atoms: C_6  and  S_7 
ROOT
HETATM    1  C   UNK     0       7.331  -4.727  12.547  0.00  0.00     0.218 C 
ENDROOT
BRANCH   1   2
HETATM    2  N   UNK     0       6.484  -4.989  13.805  0.00  0.00    -0.264 NA
BRANCH   2   3
HETATM    3  C   UNK     0       5.235  -5.887  13.720  0.00  0.00     0.304 C 
HETATM    4  O   UNK     0       4.735  -6.383  12.350  0.00  0.00    -0.192 OA
ENDBRANCH   2   3
ENDBRANCH   1   2
BRANCH   1   5
HETATM    5  C   UNK     0       7.145  -3.421  11.751  0.00  0.00     0.037 C 
BRANCH   5   6
HETATM    6  C   UNK     0       6.897  -3.473  10.232  0.00  0.00     0.059 C 
BRANCH   6   7
HETATM    7  S   UNK     0       5.787  -4.375   9.664  0.00  0.00    -0.139 SA
HETATM    8  C   UNK     0       6.146  -5.728   9.022  0.00  0.00     0.069 C 
ENDBRANCH   6   7
ENDBRANCH   5   6
ENDBRANCH   1   5
BRANCH   1   9
HETATM    9  C   UNK     0       8.364  -5.771  12.082  0.00  0.00     0.199 C 
HETATM   10  O   UNK     0       8.108  -7.270  12.329  0.00  0.00    -0.646 OA
HETATM   11  O   UNK     0       9.652  -5.317  11.372  0.00  0.00    -0.646 OA
ENDBRANCH   1   9
TORSDOF 6
ENDMDL
MODEL 2
REMARK VINA RESULT:      -4.3      2.293      3.225
REMARK  6 active torsions:
REMARK  status: ('A' for Active; 'I' for Inactive)
REMARK    1  A    between atoms: N_1  and  C_2 
REMARK    2  A    between atoms: N_1  and  C_4 
REMARK    3  A    between atoms: C_4  and  C_5 
REMARK    4  A    between atoms: C_4  and  C_9 
REMARK    5  A    between atoms: C_5  and  C_6 
REMARK    6  A    between atoms: C_6  and  S_7 
ROOT
HETATM    1  C   UNK     0       6.090  -5.699  12.039  0.00  0.00     0.218 C 
ENDROOT
BRANCH   1   2
HETATM    2  N   UNK     0       6.135  -7.226  11.851  0.00  0.00    -0.264 NA
BRANCH   2   3
HETATM    3  C   UNK     0       7.471  -7.980  11.992  0.00  0.00     0.304 C 
HETATM    4  O   UNK     0       8.088  -8.689  10.772  0.00  0.00    -0.192 OA
ENDBRANCH   2   3
ENDBRANCH   1   2
BRANCH   1   5
HETATM    5  C   UNK     0       5.973  -4.775  10.812  0.00  0.00     0.037 C 
BRANCH   5   6
HETATM    6  C   UNK     0       6.007  -5.373   9.392  0.00  0.00     0.059 C 
BRANCH   6   7
HETATM    7  S   UNK     0       7.356  -5.707   8.730  0.00  0.00    -0.139 SA
HETATM    8  C   UNK     0       8.672  -5.278   9.405  0.00  0.00     0.069 C 
ENDBRANCH   6   7
ENDBRANCH   5   6
ENDBRANCH   1   5
BRANCH   1   9
HETATM    9  C   UNK     0       6.161  -5.094  13.453  0.00  0.00     0.199 C 
HETATM   10  O   UNK     0       6.433  -3.588  13.634  0.00  0.00    -0.646 OA
HETATM   11  O   UNK     0       5.962  -5.993  14.686  0.00  0.00    -0.646 OA
ENDBRANCH   1   9
TORSDOF 6
ENDMDL
MODEL 3
REMARK VINA RESULT:      -4.3      2.182      2.864
REMARK  6 active torsions:
REMARK  status: ('A' for Active; 'I' for Inactive)
REMARK    1  A    between atoms: N_1  and  C_2 
REMARK    2  A    between atoms: N_1  and  C_4 
REMARK    3  A    between atoms: C_4  and  C_5 
REMARK    4  A    between atoms: C_4  and  C_9 
REMARK    5  A    between atoms: C_5  and  C_6 
REMARK    6  A    between atoms: C_6  and  S_7 
ROOT
HETATM    1  C   UNK     0       7.392  -5.250  12.353  0.00  0.00     0.218 C 
ENDROOT
BRANCH   1   2
HETATM    2  N   UNK     0       8.130  -6.587  12.550  0.00  0.00    -0.264 NA
BRANCH   2   3
HETATM    3  C   UNK     0       7.452  -7.909  12.143  0.00  0.00     0.304 C 
HETATM    4  O   UNK     0       7.940  -8.673  10.898  0.00  0.00    -0.192 OA
ENDBRANCH   2   3
ENDBRANCH   1   2
BRANCH   1   5
HETATM    5  C   UNK     0       7.566  -4.461  11.041  0.00  0.00     0.037 C 
BRANCH   5   6
HETATM    6  C   UNK     0       8.484  -5.005   9.931  0.00  0.00     0.059 C 
BRANCH   6   7
HETATM    7  S   UNK     0       7.877  -5.733   8.718  0.00  0.00    -0.139 SA
HETATM    8  C   UNK     0       6.359  -5.990   8.655  0.00  0.00     0.069 C 
ENDBRANCH   6   7
ENDBRANCH   5   6
ENDBRANCH   1   5
BRANCH   1   9
HETATM    9  C   UNK     0       6.480  -4.703  13.466  0.00  0.00     0.199 C 
HETATM   10  O   UNK     0       5.688  -5.675  14.361  0.00  0.00    -0.646 OA
HETATM   11  O   UNK     0       6.359  -3.184  13.684  0.00  0.00    -0.646 OA
ENDBRANCH   1   9
TORSDOF 6
ENDMDL
MODEL 4
REMARK VINA RESULT:      -4.3      1.843      3.054
REMARK  6 active torsions:
REMARK  status: ('A' for Active; 'I' for Inactive)
REMARK    1  A    between atoms: N_1  and  C_2 
REMARK    2  A    between atoms: N_1  and  C_4 
REMARK    3  A    between atoms: C_4  and  C_5 
REMARK    4  A    between atoms: C_4  and  C_9 
REMARK    5  A    between atoms: C_5  and  C_6 
REMARK    6  A    between atoms: C_6  and  S_7 
ROOT
HETATM    1  C   UNK     0       7.189  -5.967  12.765  0.00  0.00     0.218 C 
ENDROOT
BRANCH   1   2
HETATM    2  N   UNK     0       8.535  -6.536  12.283  0.00  0.00    -0.264 NA
BRANCH   2   3
HETATM    3  C   UNK     0       8.575  -7.521  11.099  0.00  0.00     0.304 C 
HETATM    4  O   UNK     0       7.883  -7.159   9.772  0.00  0.00    -0.192 OA
ENDBRANCH   2   3
ENDBRANCH   1   2
BRANCH   1   5
HETATM    5  C   UNK     0       7.082  -4.488  13.182  0.00  0.00     0.037 C 
BRANCH   5   6
HETATM    6  C   UNK     0       6.864  -3.400  12.114  0.00  0.00     0.059 C 
BRANCH   6   7
HETATM    7  S   UNK     0       7.077  -3.730  10.625  0.00  0.00    -0.139 SA
HETATM    8  C   UNK     0       5.884  -4.163   9.754  0.00  0.00     0.069 C 
ENDBRANCH   6   7
ENDBRANCH   5   6
ENDBRANCH   1   5
BRANCH   1   9
HETATM    9  C   UNK     0       5.948  -6.877  12.831  0.00  0.00     0.199 C 
HETATM   10  O   UNK     0       5.998  -8.192  13.632  0.00  0.00    -0.646 OA
HETATM   11  O   UNK     0       4.656  -6.472  12.098  0.00  0.00    -0.646 OA
ENDBRANCH   1   9
TORSDOF 6
ENDMDL
MODEL 5
REMARK VINA RESULT:      -4.3      2.595      3.393
REMARK  6 active torsions:
REMARK  status: ('A' for Active; 'I' for Inactive)
REMARK    1  A    between atoms: N_1  and  C_2 
REMARK    2  A    between atoms: N_1  and  C_4 
REMARK    3  A    between atoms: C_4  and  C_5 
REMARK    4  A    between atoms: C_4  and  C_9 
REMARK    5  A    between atoms: C_5  and  C_6 
REMARK    6  A    between atoms: C_6  and  S_7 
ROOT
HETATM    1  C   UNK     0       6.747  -5.544  11.966  0.00  0.00     0.218 C 
ENDROOT
BRANCH   1   2
HETATM    2  N   UNK     0       5.727  -5.437  10.819  0.00  0.00    -0.264 NA
BRANCH   2   3
HETATM    3  C   UNK     0       5.734  -4.205   9.894  0.00  0.00     0.304 C 
HETATM    4  O   UNK     0       6.810  -3.117  10.069  0.00  0.00    -0.192 OA
ENDBRANCH   2   3
ENDBRANCH   1   2
BRANCH   1   5
HETATM    5  C   UNK     0       8.113  -6.213  11.722  0.00  0.00     0.037 C 
BRANCH   5   6
HETATM    6  C   UNK     0       9.290  -5.385  11.172  0.00  0.00     0.059 C 
BRANCH   6   7
HETATM    7  S   UNK     0       9.687  -5.501   9.690  0.00  0.00    -0.139 SA
HETATM    8  C   UNK     0       8.680  -6.056   8.664  0.00  0.00     0.069 C 
ENDBRANCH   6   7
ENDBRANCH   5   6
ENDBRANCH   1   5
BRANCH   1   9
HETATM    9  C   UNK     0       6.403  -4.982  13.358  0.00  0.00     0.199 C 
HETATM   10  O   UNK     0       5.995  -5.938  14.495  0.00  0.00    -0.646 OA
HETATM   11  O   UNK     0       6.468  -3.466  13.614  0.00  0.00    -0.646 OA
ENDBRANCH   1   9
TORSDOF 6
ENDMDL
MODEL 6
REMARK VINA RESULT:      -4.3      2.503      3.769
REMARK  6 active torsions:
REMARK  status: ('A' for Active; 'I' for Inactive)
REMARK    1  A    between atoms: N_1  and  C_2 
REMARK    2  A    between atoms: N_1  and  C_4 
REMARK    3  A    between atoms: C_4  and  C_5 
REMARK    4  A    between atoms: C_4  and  C_9 
REMARK    5  A    between atoms: C_5  and  C_6 
REMARK    6  A    between atoms: C_6  and  S_7 
ROOT
HETATM    1  C   UNK     0       7.982  -5.170  11.202  0.00  0.00     0.218 C 
ENDROOT
BRANCH   1   2
HETATM    2  N   UNK     0       9.393  -5.658  11.579  0.00  0.00    -0.264 NA
BRANCH   2   3
HETATM    3  C   UNK     0       9.571  -6.982  12.345  0.00  0.00     0.304 C 
HETATM    4  O   UNK     0      10.859  -7.807  12.168  0.00  0.00    -0.192 OA
ENDBRANCH   2   3
ENDBRANCH   1   2
BRANCH   1   5
HETATM    5  C   UNK     0       7.271  -4.122  12.078  0.00  0.00     0.037 C 
BRANCH   5   6
HETATM    6  C   UNK     0       6.599  -4.548  13.397  0.00  0.00     0.059 C 
BRANCH   6   7
HETATM    7  S   UNK     0       6.056  -5.979  13.557  0.00  0.00    -0.139 SA
HETATM    8  C   UNK     0       4.767  -6.401  12.826  0.00  0.00     0.069 C 
ENDBRANCH   6   7
ENDBRANCH   5   6
ENDBRANCH   1   5
BRANCH   1   9
HETATM    9  C   UNK     0       7.282  -5.730   9.950  0.00  0.00     0.199 C 
HETATM   10  O   UNK     0       5.829  -5.329   9.637  0.00  0.00    -0.646 OA
HETATM   11  O   UNK     0       8.035  -6.691   9.012  0.00  0.00    -0.646 OA
ENDBRANCH   1   9
TORSDOF 6
ENDMDL
MODEL 7
REMARK VINA RESULT:      -4.2      2.379      2.790
REMARK  6 active torsions:
REMARK  status: ('A' for Active; 'I' for Inactive)
REMARK    1  A    between atoms: N_1  and  C_2 
REMARK    2  A    between atoms: N_1  and  C_4 
REMARK    3  A    between atoms: C_4  and  C_5 
REMARK    4  A    between atoms: C_4  and  C_9 
REMARK    5  A    between atoms: C_5  and  C_6 
REMARK    6  A    between atoms: C_6  and  S_7 
ROOT
HETATM    1  C   UNK     0       5.819  -4.933  11.283  0.00  0.00     0.218 C 
ENDROOT
BRANCH   1   2
HETATM    2  N   UNK     0       5.137  -6.139  11.954  0.00  0.00    -0.264 NA
BRANCH   2   3
HETATM    3  C   UNK     0       5.986  -7.325  12.451  0.00  0.00     0.304 C 
HETATM    4  O   UNK     0       5.910  -7.762  13.926  0.00  0.00    -0.192 OA
ENDBRANCH   2   3
ENDBRANCH   1   2
BRANCH   1   5
HETATM    5  C   UNK     0       5.735  -4.752   9.756  0.00  0.00     0.037 C 
BRANCH   5   6
HETATM    6  C   UNK     0       6.450  -5.746   8.822  0.00  0.00     0.059 C 
BRANCH   6   7
HETATM    7  S   UNK     0       7.966  -5.975   8.957  0.00  0.00    -0.139 SA
HETATM    8  C   UNK     0       8.879  -5.834   7.725  0.00  0.00     0.069 C 
ENDBRANCH   6   7
ENDBRANCH   5   6
ENDBRANCH   1   5
BRANCH   1   9
HETATM    9  C   UNK     0       6.586  -3.907  12.139  0.00  0.00     0.199 C 
HETATM   10  O   UNK     0       6.559  -4.013  13.675  0.00  0.00    -0.646 OA
HETATM   11  O   UNK     0       7.379  -2.777  11.459  0.00  0.00    -0.646 OA
ENDBRANCH   1   9
TORSDOF 6
ENDMDL
MODEL 8
REMARK VINA RESULT:      -4.2      2.773      3.837
REMARK  6 active torsions:
REMARK  status: ('A' for Active; 'I' for Inactive)
REMARK    1  A    between atoms: N_1  and  C_2 
REMARK    2  A    between atoms: N_1  and  C_4 
REMARK    3  A    between atoms: C_4  and  C_5 
REMARK    4  A    between atoms: C_4  and  C_9 
REMARK    5  A    between atoms: C_5  and  C_6 
REMARK    6  A    between atoms: C_6  and  S_7 
ROOT
HETATM    1  C   UNK     0       8.462  -7.297  11.277  0.00  0.00     0.218 C 
ENDROOT
BRANCH   1   2
HETATM    2  N   UNK     0       7.171  -7.418  10.446  0.00  0.00    -0.264 NA
BRANCH   2   3
HETATM    3  C   UNK     0       6.739  -6.265   9.522  0.00  0.00     0.304 C 
HETATM    4  O   UNK     0       7.240  -6.215   8.066  0.00  0.00    -0.192 OA
ENDBRANCH   2   3
ENDBRANCH   1   2
BRANCH   1   5
HETATM    5  C   UNK     0       8.594  -6.186  12.336  0.00  0.00     0.037 C 
BRANCH   5   6
HETATM    6  C   UNK     0       7.391  -5.822  13.226  0.00  0.00     0.059 C 
BRANCH   6   7
HETATM    7  S   UNK     0       6.754  -4.425  13.125  0.00  0.00    -0.139 SA
HETATM    8  C   UNK     0       7.133  -3.488  11.962  0.00  0.00     0.069 C 
ENDBRANCH   6   7
ENDBRANCH   5   6
ENDBRANCH   1   5
BRANCH   1   9
HETATM    9  C   UNK     0       9.620  -8.286  11.050  0.00  0.00     0.199 C 
HETATM   10  O   UNK     0      11.008  -7.998  11.653  0.00  0.00    -0.646 OA
HETATM   11  O   UNK     0       9.391  -9.562  10.219  0.00  0.00    -0.646 OA
ENDBRANCH   1   9
TORSDOF 6
ENDMDL
MODEL 9
REMARK VINA RESULT:      -4.2      2.855      3.937
REMARK  6 active torsions:
REMARK  status: ('A' for Active; 'I' for Inactive)
REMARK    1  A    between atoms: N_1  and  C_2 
REMARK    2  A    between atoms: N_1  and  C_4 
REMARK    3  A    between atoms: C_4  and  C_5 
REMARK    4  A    between atoms: C_4  and  C_9 
REMARK    5  A    between atoms: C_5  and  C_6 
REMARK    6  A    between atoms: C_6  and  S_7 
ROOT
HETATM    1  C   UNK     0       7.425  -6.059  10.476  0.00  0.00     0.218 C 
ENDROOT
BRANCH   1   2
HETATM    2  N   UNK     0       7.981  -4.889  11.308  0.00  0.00    -0.264 NA
BRANCH   2   3
HETATM    3  C   UNK     0       7.016  -3.885  11.965  0.00  0.00     0.304 C 
HETATM    4  O   UNK     0       6.740  -3.958  13.479  0.00  0.00    -0.192 OA
ENDBRANCH   2   3
ENDBRANCH   1   2
BRANCH   1   5
HETATM    5  C   UNK     0       7.214  -7.438  11.129  0.00  0.00     0.037 C 
BRANCH   5   6
HETATM    6  C   UNK     0       7.065  -7.551  12.658  0.00  0.00     0.059 C 
BRANCH   6   7
HETATM    7  S   UNK     0       5.677  -7.405  13.308  0.00  0.00    -0.139 SA
HETATM    8  C   UNK     0       4.512  -6.795  12.507  0.00  0.00     0.069 C 
ENDBRANCH   6   7
ENDBRANCH   5   6
ENDBRANCH   1   5
BRANCH   1   9
HETATM    9  C   UNK     0       7.080  -5.850   8.989  0.00  0.00     0.199 C 
HETATM   10  O   UNK     0       8.204  -5.807   7.937  0.00  0.00    -0.646 OA
HETATM   11  O   UNK     0       5.612  -5.686   8.556  0.00  0.00    -0.646 OA
ENDBRANCH   1   9
TORSDOF 6
ENDMDL
