MODEL 1
REMARK VINA RESULT:      -3.3      0.000      0.000
REMARK  6 active torsions:
REMARK  status: ('A' for Active; 'I' for Inactive)
REMARK    1  A    between atoms: N_1  and  C_2 
REMARK    2  A    between atoms: N_1  and  C_4 
REMARK    3  A    between atoms: C_4  and  C_5 
REMARK    4  A    between atoms: C_4  and  C_9 
REMARK    5  A    between atoms: C_5  and  C_6 
REMARK    6  A    between atoms: C_6  and  S_7 
ROOT
HETATM    1  C   UNK     0      12.756   7.646  13.503  0.00  0.00     0.218 C 
ENDROOT
BRANCH   1   2
HETATM    2  N   UNK     0      12.350   6.161  13.486  0.00  0.00    -0.264 NA
BRANCH   2   3
HETATM    3  C   UNK     0      11.898   5.472  14.787  0.00  0.00     0.304 C 
HETATM    4  O   UNK     0      10.398   5.254  15.062  0.00  0.00    -0.192 OA
ENDBRANCH   2   3
ENDBRANCH   1   2
BRANCH   1   5
HETATM    5  C   UNK     0      11.701   8.736  13.234  0.00  0.00     0.037 C 
BRANCH   5   6
HETATM    6  C   UNK     0      10.226   8.345  13.025  0.00  0.00     0.059 C 
BRANCH   6   7
HETATM    7  S   UNK     0       9.203   8.571  14.152  0.00  0.00    -0.139 SA
HETATM    8  C   UNK     0       7.897   7.755  14.182  0.00  0.00     0.069 C 
ENDBRANCH   6   7
ENDBRANCH   5   6
ENDBRANCH   1   5
BRANCH   1   9
HETATM    9  C   UNK     0      14.217   8.042  13.788  0.00  0.00     0.199 C 
HETATM   10  O   UNK     0      14.892   9.148  12.955  0.00  0.00    -0.646 OA
HETATM   11  O   UNK     0      15.002   7.332  14.906  0.00  0.00    -0.646 OA
ENDBRANCH   1   9
TORSDOF 6
ENDMDL
MODEL 2
REMARK VINA RESULT:      -3.2      2.817      3.789
REMARK  6 active torsions:
REMARK  status: ('A' for Active; 'I' for Inactive)
REMARK    1  A    between atoms: N_1  and  C_2 
REMARK    2  A    between atoms: N_1  and  C_4 
REMARK    3  A    between atoms: C_4  and  C_5 
REMARK    4  A    between atoms: C_4  and  C_9 
REMARK    5  A    between atoms: C_5  and  C_6 
REMARK    6  A    between atoms: C_6  and  S_7 
ROOT
HETATM    1  C   UNK     0      12.707   7.795  13.341  0.00  0.00     0.218 C 
ENDROOT
BRANCH   1   2
HETATM    2  N   UNK     0      11.197   8.045  13.511  0.00  0.00    -0.264 NA
BRANCH   2   3
HETATM    3  C   UNK     0      10.183   6.992  13.024  0.00  0.00     0.304 C 
HETATM    4  O   UNK     0       9.481   6.072  14.040  0.00  0.00    -0.192 OA
ENDBRANCH   2   3
ENDBRANCH   1   2
BRANCH   1   5
HETATM    5  C   UNK     0      13.467   8.442  12.168  0.00  0.00     0.037 C 
BRANCH   5   6
HETATM    6  C   UNK     0      13.077   9.850  11.680  0.00  0.00     0.059 C 
BRANCH   6   7
HETATM    7  S   UNK     0      13.924  10.553  10.604  0.00  0.00    -0.139 SA
HETATM    8  C   UNK     0      13.372  10.718   9.175  0.00  0.00     0.069 C 
ENDBRANCH   6   7
ENDBRANCH   5   6
ENDBRANCH   1   5
BRANCH   1   9
HETATM    9  C   UNK     0      13.457   6.899  14.344  0.00  0.00     0.199 C 
HETATM   10  O   UNK     0      12.737   5.704  14.997  0.00  0.00    -0.646 OA
HETATM   11  O   UNK     0      14.926   7.198  14.695  0.00  0.00    -0.646 OA
ENDBRANCH   1   9
TORSDOF 6
ENDMDL
MODEL 3
REMARK VINA RESULT:      -3.1      1.812      2.685
REMARK  6 active torsions:
REMARK  status: ('A' for Active; 'I' for Inactive)
REMARK    1  A    between atoms: N_1  and  C_2 
REMARK    2  A    between atoms: N_1  and  C_4 
REMARK    3  A    between atoms: C_4  and  C_5 
REMARK    4  A    between atoms: C_4  and  C_9 
REMARK    5  A    between atoms: C_5  and  C_6 
REMARK    6  A    between atoms: C_6  and  S_7 
ROOT
HETATM    1  C   UNK     0      12.717   7.623  13.277  0.00  0.00     0.218 C 
ENDROOT
BRANCH   1   2
HETATM    2  N   UNK     0      12.192   6.177  13.342  0.00  0.00    -0.264 NA
BRANCH   2   3
HETATM    3  C   UNK     0      11.153   5.783  14.408  0.00  0.00     0.304 C 
HETATM    4  O   UNK     0       9.651   5.984  14.132  0.00  0.00    -0.192 OA
ENDBRANCH   2   3
ENDBRANCH   1   2
BRANCH   1   5
HETATM    5  C   UNK     0      11.782   8.762  12.830  0.00  0.00     0.037 C 
BRANCH   5   6
HETATM    6  C   UNK     0      11.522   9.957  13.767  0.00  0.00     0.059 C 
BRANCH   6   7
HETATM    7  S   UNK     0      11.862  11.386  13.304  0.00  0.00    -0.139 SA
HETATM    8  C   UNK     0      12.556  11.611  11.948  0.00  0.00     0.069 C 
ENDBRANCH   6   7
ENDBRANCH   5   6
ENDBRANCH   1   5
BRANCH   1   9
HETATM    9  C   UNK     0      14.177   7.930  13.657  0.00  0.00     0.199 C 
HETATM   10  O   UNK     0      14.927   7.010  14.639  0.00  0.00    -0.646 OA
HETATM   11  O   UNK     0      14.888   9.156  13.057  0.00  0.00    -0.646 OA
ENDBRANCH   1   9
TORSDOF 6
ENDMDL
MODEL 4
REMARK VINA RESULT:      -3.0      2.857      3.972
REMARK  6 active torsions:
REMARK  status: ('A' for Active; 'I' for Inactive)
REMARK    1  A    between atoms: N_1  and  C_2 
REMARK    2  A    between atoms: N_1  and  C_4 
REMARK    3  A    between atoms: C_4  and  C_5 
REMARK    4  A    between atoms: C_4  and  C_9 
REMARK    5  A    between atoms: C_5  and  C_6 
REMARK    6  A    between atoms: C_6  and  S_7 
ROOT
HETATM    1  C   UNK     0      12.723   7.377  13.730  0.00  0.00     0.218 C 
ENDROOT
BRANCH   1   2
HETATM    2  N   UNK     0      12.475   6.035  14.442  0.00  0.00    -0.264 NA
BRANCH   2   3
HETATM    3  C   UNK     0      11.265   5.167  14.049  0.00  0.00     0.304 C 
HETATM    4  O   UNK     0       9.834   5.688  14.283  0.00  0.00    -0.192 OA
ENDBRANCH   2   3
ENDBRANCH   1   2
BRANCH   1   5
HETATM    5  C   UNK     0      13.974   7.564  12.852  0.00  0.00     0.037 C 
BRANCH   5   6
HETATM    6  C   UNK     0      14.388   8.973  12.389  0.00  0.00     0.059 C 
BRANCH   6   7
HETATM    7  S   UNK     0      13.992   9.469  10.986  0.00  0.00    -0.139 SA
HETATM    8  C   UNK     0      14.975   9.315   9.810  0.00  0.00     0.069 C 
ENDBRANCH   6   7
ENDBRANCH   5   6
ENDBRANCH   1   5
BRANCH   1   9
HETATM    9  C   UNK     0      11.719   8.534  13.896  0.00  0.00     0.199 C 
HETATM   10  O   UNK     0      10.560   8.697  12.895  0.00  0.00    -0.646 OA
HETATM   11  O   UNK     0      11.875   9.527  15.061  0.00  0.00    -0.646 OA
ENDBRANCH   1   9
TORSDOF 6
ENDMDL
MODEL 5
REMARK VINA RESULT:      -3.0      2.002      4.067
REMARK  6 active torsions:
REMARK  status: ('A' for Active; 'I' for Inactive)
REMARK    1  A    between atoms: N_1  and  C_2 
REMARK    2  A    between atoms: N_1  and  C_4 
REMARK    3  A    between atoms: C_4  and  C_5 
REMARK    4  A    between atoms: C_4  and  C_9 
REMARK    5  A    between atoms: C_5  and  C_6 
REMARK    6  A    between atoms: C_6  and  S_7 
ROOT
HETATM    1  C   UNK     0      11.647   7.304  13.705  0.00  0.00     0.218 C 
ENDROOT
BRANCH   1   2
HETATM    2  N   UNK     0      12.963   6.896  13.019  0.00  0.00    -0.264 NA
BRANCH   2   3
HETATM    3  C   UNK     0      14.289   7.555  13.443  0.00  0.00     0.304 C 
HETATM    4  O   UNK     0      14.960   7.154  14.769  0.00  0.00    -0.192 OA
ENDBRANCH   2   3
ENDBRANCH   1   2
BRANCH   1   5
HETATM    5  C   UNK     0      11.351   8.790  13.980  0.00  0.00     0.037 C 
BRANCH   5   6
HETATM    6  C   UNK     0      11.215   9.779  12.807  0.00  0.00     0.059 C 
BRANCH   6   7
HETATM    7  S   UNK     0      12.411  10.658  12.399  0.00  0.00    -0.139 SA
HETATM    8  C   UNK     0      12.237  11.740  11.316  0.00  0.00     0.069 C 
ENDBRANCH   6   7
ENDBRANCH   5   6
ENDBRANCH   1   5
BRANCH   1   9
HETATM    9  C   UNK     0      10.626   6.227  14.115  0.00  0.00     0.199 C 
HETATM   10  O   UNK     0       9.126   6.440  13.833  0.00  0.00    -0.646 OA
HETATM   11  O   UNK     0      11.103   4.938  14.808  0.00  0.00    -0.646 OA
ENDBRANCH   1   9
TORSDOF 6
ENDMDL
MODEL 6
REMARK VINA RESULT:      -2.9      2.632      4.720
REMARK  6 active torsions:
REMARK  status: ('A' for Active; 'I' for Inactive)
REMARK    1  A    between atoms: N_1  and  C_2 
REMARK    2  A    between atoms: N_1  and  C_4 
REMARK    3  A    between atoms: C_4  and  C_5 
REMARK    4  A    between atoms: C_4  and  C_9 
REMARK    5  A    between atoms: C_5  and  C_6 
REMARK    6  A    between atoms: C_6  and  S_7 
ROOT
HETATM    1  C   UNK     0      11.354   7.783  13.186  0.00  0.00     0.218 C 
ENDROOT
BRANCH   1   2
HETATM    2  N   UNK     0      12.433   6.718  13.454  0.00  0.00    -0.264 NA
BRANCH   2   3
HETATM    3  C   UNK     0      13.317   6.816  14.712  0.00  0.00     0.304 C 
HETATM    4  O   UNK     0      14.804   7.196  14.581  0.00  0.00    -0.192 OA
ENDBRANCH   2   3
ENDBRANCH   1   2
BRANCH   1   5
HETATM    5  C   UNK     0      11.766   9.216  12.799  0.00  0.00     0.037 C 
BRANCH   5   6
HETATM    6  C   UNK     0      13.047   9.453  11.976  0.00  0.00     0.059 C 
BRANCH   6   7
HETATM    7  S   UNK     0      13.941  10.669  12.278  0.00  0.00    -0.139 SA
HETATM    8  C   UNK     0      15.062  11.062  11.298  0.00  0.00     0.069 C 
ENDBRANCH   6   7
ENDBRANCH   5   6
ENDBRANCH   1   5
BRANCH   1   9
HETATM    9  C   UNK     0       9.863   7.417  13.306  0.00  0.00     0.199 C 
HETATM   10  O   UNK     0       9.449   6.065  13.918  0.00  0.00    -0.646 OA
HETATM   11  O   UNK     0       8.787   8.401  12.814  0.00  0.00    -0.646 OA
ENDBRANCH   1   9
TORSDOF 6
ENDMDL
MODEL 7
REMARK VINA RESULT:      -2.9      2.959      4.402
REMARK  6 active torsions:
REMARK  status: ('A' for Active; 'I' for Inactive)
REMARK    1  A    between atoms: N_1  and  C_2 
REMARK    2  A    between atoms: N_1  and  C_4 
REMARK    3  A    between atoms: C_4  and  C_5 
REMARK    4  A    between atoms: C_4  and  C_9 
REMARK    5  A    between atoms: C_5  and  C_6 
REMARK    6  A    between atoms: C_6  and  S_7 
ROOT
HETATM    1  C   UNK     0      12.689   7.733  13.010  0.00  0.00     0.218 C 
ENDROOT
BRANCH   1   2
HETATM    2  N   UNK     0      11.585   8.780  12.772  0.00  0.00    -0.264 NA
BRANCH   2   3
HETATM    3  C   UNK     0      10.229   8.645  13.489  0.00  0.00     0.304 C 
HETATM    4  O   UNK     0       9.015   8.067  12.738  0.00  0.00    -0.192 OA
ENDBRANCH   2   3
ENDBRANCH   1   2
BRANCH   1   5
HETATM    5  C   UNK     0      14.119   7.992  12.499  0.00  0.00     0.037 C 
BRANCH   5   6
HETATM    6  C   UNK     0      14.357   8.988  11.349  0.00  0.00     0.059 C 
BRANCH   6   7
HETATM    7  S   UNK     0      15.019  10.348  11.634  0.00  0.00    -0.139 SA
HETATM    8  C   UNK     0      14.966  10.949  13.051  0.00  0.00     0.069 C 
ENDBRANCH   6   7
ENDBRANCH   5   6
ENDBRANCH   1   5
BRANCH   1   9
HETATM    9  C   UNK     0      12.363   6.427  13.759  0.00  0.00     0.199 C 
HETATM   10  O   UNK     0      13.108   6.081  15.062  0.00  0.00    -0.646 OA
HETATM   11  O   UNK     0      11.294   5.468  13.206  0.00  0.00    -0.646 OA
ENDBRANCH   1   9
TORSDOF 6
ENDMDL
MODEL 8
REMARK VINA RESULT:      -2.9      1.796      3.148
REMARK  6 active torsions:
REMARK  status: ('A' for Active; 'I' for Inactive)
REMARK    1  A    between atoms: N_1  and  C_2 
REMARK    2  A    between atoms: N_1  and  C_4 
REMARK    3  A    between atoms: C_4  and  C_5 
REMARK    4  A    between atoms: C_4  and  C_9 
REMARK    5  A    between atoms: C_5  and  C_6 
REMARK    6  A    between atoms: C_6  and  S_7 
ROOT
HETATM    1  C   UNK     0      12.096   7.831  14.188  0.00  0.00     0.218 C 
ENDROOT
BRANCH   1   2
HETATM    2  N   UNK     0      12.509   9.202  13.622  0.00  0.00    -0.264 NA
BRANCH   2   3
HETATM    3  C   UNK     0      12.935   9.329  12.147  0.00  0.00     0.304 C 
HETATM    4  O   UNK     0      14.165   8.559  11.631  0.00  0.00    -0.192 OA
ENDBRANCH   2   3
ENDBRANCH   1   2
BRANCH   1   5
HETATM    5  C   UNK     0      10.604   7.471  14.321  0.00  0.00     0.037 C 
BRANCH   5   6
HETATM    6  C   UNK     0       9.703   7.449  13.072  0.00  0.00     0.059 C 
BRANCH   6   7
HETATM    7  S   UNK     0       8.209   7.801  13.194  0.00  0.00    -0.139 SA
HETATM    8  C   UNK     0       7.591   8.866  12.268  0.00  0.00     0.069 C 
ENDBRANCH   6   7
ENDBRANCH   5   6
ENDBRANCH   1   5
BRANCH   1   9
HETATM    9  C   UNK     0      13.173   6.820  14.622  0.00  0.00     0.199 C 
HETATM   10  O   UNK     0      12.768   5.395  15.042  0.00  0.00    -0.646 OA
HETATM   11  O   UNK     0      14.656   7.234  14.636  0.00  0.00    -0.646 OA
ENDBRANCH   1   9
TORSDOF 6
ENDMDL
MODEL 9
REMARK VINA RESULT:      -2.8      2.936      5.217
REMARK  6 active torsions:
REMARK  status: ('A' for Active; 'I' for Inactive)
REMARK    1  A    between atoms: N_1  and  C_2 
REMARK    2  A    between atoms: N_1  and  C_4 
REMARK    3  A    between atoms: C_4  and  C_5 
REMARK    4  A    between atoms: C_4  and  C_9 
REMARK    5  A    between atoms: C_5  and  C_6 
REMARK    6  A    between atoms: C_6  and  S_7 
ROOT
HETATM    1  C   UNK     0       9.440   7.807  13.376  0.00  0.00     0.218 C 
ENDROOT
BRANCH   1   2
HETATM    2  N   UNK     0      10.223   8.995  13.963  0.00  0.00    -0.264 NA
BRANCH   2   3
HETATM    3  C   UNK     0      11.014   9.932  13.031  0.00  0.00     0.304 C 
HETATM    4  O   UNK     0      12.143   9.367  12.148  0.00  0.00    -0.192 OA
ENDBRANCH   2   3
ENDBRANCH   1   2
BRANCH   1   5
HETATM    5  C   UNK     0      10.182   6.520  12.969  0.00  0.00     0.037 C 
BRANCH   5   6
HETATM    6  C   UNK     0      10.627   5.514  14.047  0.00  0.00     0.059 C 
BRANCH   6   7
HETATM    7  S   UNK     0      11.915   5.767  14.851  0.00  0.00    -0.139 SA
HETATM    8  C   UNK     0      13.039   6.633  14.251  0.00  0.00     0.069 C 
ENDBRANCH   6   7
ENDBRANCH   5   6
ENDBRANCH   1   5
BRANCH   1   9
HETATM    9  C   UNK     0       7.914   7.906  13.194  0.00  0.00     0.199 C 
HETATM   10  O   UNK     0       7.329   8.658  11.984  0.00  0.00    -0.646 OA
HETATM   11  O   UNK     0       6.972   7.252  14.222  0.00  0.00    -0.646 OA
ENDBRANCH   1   9
TORSDOF 6
ENDMDL
