REMARK  Name = DB04464.pdb
REMARK  4 active torsions:
REMARK  status: ('A' for Active; 'I' for Inactive)
REMARK    1  A    between atoms: _1  and  _4
REMARK    2  A    between atoms: _4  and  _5
REMARK    3  A    between atoms: _4  and  _9
REMARK    4  A    between atoms: _5  and  _6
REMARK                            x       y       z     vdW  Elec       q    Type
REMARK                         _______ _______ _______ _____ _____    ______ ____
ROOT
ATOM      1  CA  MET A   1      -0.904  -0.098   0.000  0.00  0.00    +0.235 C 
ENDROOT
BRANCH   1   2
ATOM      2  N   MET A   1      -2.237  -0.868   0.000  0.00  0.00    -0.226 NA
ATOM      3  C   UNK A   0      -3.571  -0.098   0.000  0.00  0.00    +0.333 C 
ATOM      4  O   UNK A   0      -4.905  -0.868   0.000  0.00  0.00    -0.260 OA
ENDBRANCH   1   2
BRANCH   1   5
ATOM      5  C   MET A   1      -0.904   1.442   0.000  0.00  0.00    +0.381 C 
ATOM      6  OXT MET A   1      -2.237   2.212   0.000  0.00  0.00    -0.244 OA
ATOM      7  O   MET A   1       0.430   2.212   0.000  0.00  0.00    -0.244 OA
ENDBRANCH   1   5
BRANCH   1   8
ATOM      8  CB  MET A   1       0.430  -0.868   0.000  0.00  0.00    +0.062 C 
BRANCH   8   9
ATOM      9  CG  MET A   1       1.764  -0.098   0.000  0.00  0.00    +0.007 C 
ATOM     10  SD  MET A   1       3.097  -0.868   0.000  0.00  0.00    -0.117 S 
ATOM     11  CE  MET A   1       4.431  -0.098   0.000  0.00  0.00    +0.074 C 
ENDBRANCH   8   9
ENDBRANCH   1   8
TORSDOF 4
