MODEL 1
REMARK VINA RESULT:      -3.4      0.000      0.000
REMARK  6 active torsions:
REMARK  status: ('A' for Active; 'I' for Inactive)
REMARK    1  A    between atoms: N_1  and  C_2 
REMARK    2  A    between atoms: N_1  and  C_4 
REMARK    3  A    between atoms: C_4  and  C_5 
REMARK    4  A    between atoms: C_4  and  C_9 
REMARK    5  A    between atoms: C_5  and  C_6 
REMARK    6  A    between atoms: C_6  and  S_7 
ROOT
HETATM    1  C   UNK     0      12.618   8.133  13.778  0.00  0.00     0.218 C 
ENDROOT
BRANCH   1   2
HETATM    2  N   UNK     0      11.091   8.200  13.957  0.00  0.00    -0.264 NA
BRANCH   2   3
HETATM    3  C   UNK     0      10.176   7.295  13.110  0.00  0.00     0.304 C 
HETATM    4  O   UNK     0       9.387   6.155  13.781  0.00  0.00    -0.192 OA
ENDBRANCH   2   3
ENDBRANCH   1   2
BRANCH   1   5
HETATM    5  C   UNK     0      13.334   9.154  12.875  0.00  0.00     0.037 C 
BRANCH   5   6
HETATM    6  C   UNK     0      14.088   8.678  11.619  0.00  0.00     0.059 C 
BRANCH   6   7
HETATM    7  S   UNK     0      14.616   9.706  10.602  0.00  0.00    -0.139 SA
HETATM    8  C   UNK     0      14.572   9.391   9.095  0.00  0.00     0.069 C 
ENDBRANCH   6   7
ENDBRANCH   5   6
ENDBRANCH   1   5
BRANCH   1   9
HETATM    9  C   UNK     0      13.431   7.043  14.503  0.00  0.00     0.199 C 
HETATM   10  O   UNK     0      12.738   5.750  14.973  0.00  0.00    -0.646 OA
HETATM   11  O   UNK     0      14.935   7.246  14.757  0.00  0.00    -0.646 OA
ENDBRANCH   1   9
TORSDOF 6
ENDMDL
MODEL 2
REMARK VINA RESULT:      -3.2      1.876      3.569
REMARK  6 active torsions:
REMARK  status: ('A' for Active; 'I' for Inactive)
REMARK    1  A    between atoms: N_1  and  C_2 
REMARK    2  A    between atoms: N_1  and  C_4 
REMARK    3  A    between atoms: C_4  and  C_5 
REMARK    4  A    between atoms: C_4  and  C_9 
REMARK    5  A    between atoms: C_5  and  C_6 
REMARK    6  A    between atoms: C_6  and  S_7 
ROOT
HETATM    1  C   UNK     0      11.646   7.447  13.587  0.00  0.00     0.218 C 
ENDROOT
BRANCH   1   2
HETATM    2  N   UNK     0      12.973   6.816  13.127  0.00  0.00    -0.264 NA
BRANCH   2   3
HETATM    3  C   UNK     0      14.313   7.434  13.570  0.00  0.00     0.304 C 
HETATM    4  O   UNK     0      14.705   7.435  15.059  0.00  0.00    -0.192 OA
ENDBRANCH   2   3
ENDBRANCH   1   2
BRANCH   1   5
HETATM    5  C   UNK     0      11.606   8.922  14.027  0.00  0.00     0.037 C 
BRANCH   5   6
HETATM    6  C   UNK     0      11.395  10.033  12.980  0.00  0.00     0.059 C 
BRANCH   6   7
HETATM    7  S   UNK     0      12.610  10.683  12.294  0.00  0.00    -0.139 SA
HETATM    8  C   UNK     0      13.309   9.965  11.124  0.00  0.00     0.069 C 
ENDBRANCH   6   7
ENDBRANCH   5   6
ENDBRANCH   1   5
BRANCH   1   9
HETATM    9  C   UNK     0      10.358   6.602  13.608  0.00  0.00     0.199 C 
HETATM   10  O   UNK     0      10.300   5.307  14.440  0.00  0.00    -0.646 OA
HETATM   11  O   UNK     0       9.130   7.051  12.797  0.00  0.00    -0.646 OA
ENDBRANCH   1   9
TORSDOF 6
ENDMDL
MODEL 3
REMARK VINA RESULT:      -3.1      2.532      2.951
REMARK  6 active torsions:
REMARK  status: ('A' for Active; 'I' for Inactive)
REMARK    1  A    between atoms: N_1  and  C_2 
REMARK    2  A    between atoms: N_1  and  C_4 
REMARK    3  A    between atoms: C_4  and  C_5 
REMARK    4  A    between atoms: C_4  and  C_9 
REMARK    5  A    between atoms: C_5  and  C_6 
REMARK    6  A    between atoms: C_6  and  S_7 
ROOT
HETATM    1  C   UNK     0      12.507   7.283  13.516  0.00  0.00     0.218 C 
ENDROOT
BRANCH   1   2
HETATM    2  N   UNK     0      11.881   5.885  13.361  0.00  0.00    -0.264 NA
BRANCH   2   3
HETATM    3  C   UNK     0      10.674   5.482  14.227  0.00  0.00     0.304 C 
HETATM    4  O   UNK     0       9.284   6.079  13.937  0.00  0.00    -0.192 OA
ENDBRANCH   2   3
ENDBRANCH   1   2
BRANCH   1   5
HETATM    5  C   UNK     0      11.609   8.502  13.799  0.00  0.00     0.037 C 
BRANCH   5   6
HETATM    6  C   UNK     0      11.477   9.622  12.750  0.00  0.00     0.059 C 
BRANCH   6   7
HETATM    7  S   UNK     0      11.231  11.073  13.200  0.00  0.00    -0.139 SA
HETATM    8  C   UNK     0      10.454  12.041  12.288  0.00  0.00     0.069 C 
ENDBRANCH   6   7
ENDBRANCH   5   6
ENDBRANCH   1   5
BRANCH   1   9
HETATM    9  C   UNK     0      14.031   7.463  13.389  0.00  0.00     0.199 C 
HETATM   10  O   UNK     0      14.957   7.032  14.542  0.00  0.00    -0.646 OA
HETATM   11  O   UNK     0      14.630   8.074  12.109  0.00  0.00    -0.646 OA
ENDBRANCH   1   9
TORSDOF 6
ENDMDL
MODEL 4
REMARK VINA RESULT:      -3.1      3.009      4.814
REMARK  6 active torsions:
REMARK  status: ('A' for Active; 'I' for Inactive)
REMARK    1  A    between atoms: N_1  and  C_2 
REMARK    2  A    between atoms: N_1  and  C_4 
REMARK    3  A    between atoms: C_4  and  C_5 
REMARK    4  A    between atoms: C_4  and  C_9 
REMARK    5  A    between atoms: C_5  and  C_6 
REMARK    6  A    between atoms: C_6  and  S_7 
ROOT
HETATM    1  C   UNK     0      10.920   7.194  13.606  0.00  0.00     0.218 C 
ENDROOT
BRANCH   1   2
HETATM    2  N   UNK     0      11.611   8.565  13.506  0.00  0.00    -0.264 NA
BRANCH   2   3
HETATM    3  C   UNK     0      12.608   8.844  12.366  0.00  0.00     0.304 C 
HETATM    4  O   UNK     0      13.904   8.017  12.256  0.00  0.00    -0.192 OA
ENDBRANCH   2   3
ENDBRANCH   1   2
BRANCH   1   5
HETATM    5  C   UNK     0       9.598   6.941  12.857  0.00  0.00     0.037 C 
BRANCH   5   6
HETATM    6  C   UNK     0       8.279   7.518  13.406  0.00  0.00     0.059 C 
BRANCH   6   7
HETATM    7  S   UNK     0       7.490   8.551  12.582  0.00  0.00    -0.139 SA
HETATM    8  C   UNK     0       6.041   8.902  12.971  0.00  0.00     0.069 C 
ENDBRANCH   6   7
ENDBRANCH   5   6
ENDBRANCH   1   5
BRANCH   1   9
HETATM    9  C   UNK     0      11.550   6.074  14.456  0.00  0.00     0.199 C 
HETATM   10  O   UNK     0      10.668   4.939  15.010  0.00  0.00    -0.646 OA
HETATM   11  O   UNK     0      13.061   6.088  14.751  0.00  0.00    -0.646 OA
ENDBRANCH   1   9
TORSDOF 6
ENDMDL
MODEL 5
REMARK VINA RESULT:      -3.0      2.924      4.494
REMARK  6 active torsions:
REMARK  status: ('A' for Active; 'I' for Inactive)
REMARK    1  A    between atoms: N_1  and  C_2 
REMARK    2  A    between atoms: N_1  and  C_4 
REMARK    3  A    between atoms: C_4  and  C_5 
REMARK    4  A    between atoms: C_4  and  C_9 
REMARK    5  A    between atoms: C_5  and  C_6 
REMARK    6  A    between atoms: C_6  and  S_7 
ROOT
HETATM    1  C   UNK     0      12.411   8.352  13.436  0.00  0.00     0.218 C 
ENDROOT
BRANCH   1   2
HETATM    2  N   UNK     0      12.840   9.030  12.122  0.00  0.00    -0.264 NA
BRANCH   2   3
HETATM    3  C   UNK     0      14.249   8.781  11.551  0.00  0.00     0.304 C 
HETATM    4  O   UNK     0      14.507   8.940  10.041  0.00  0.00    -0.192 OA
ENDBRANCH   2   3
ENDBRANCH   1   2
BRANCH   1   5
HETATM    5  C   UNK     0      11.569   9.130  14.465  0.00  0.00     0.037 C 
BRANCH   5   6
HETATM    6  C   UNK     0      10.046   9.255  14.277  0.00  0.00     0.059 C 
BRANCH   6   7
HETATM    7  S   UNK     0       9.164   7.993  14.275  0.00  0.00    -0.139 SA
HETATM    8  C   UNK     0       8.800   7.309  12.944  0.00  0.00     0.069 C 
ENDBRANCH   6   7
ENDBRANCH   5   6
ENDBRANCH   1   5
BRANCH   1   9
HETATM    9  C   UNK     0      12.824   6.897  13.722  0.00  0.00     0.199 C 
HETATM   10  O   UNK     0      14.172   6.598  14.404  0.00  0.00    -0.646 OA
HETATM   11  O   UNK     0      11.889   5.739  13.326  0.00  0.00    -0.646 OA
ENDBRANCH   1   9
TORSDOF 6
ENDMDL
MODEL 6
REMARK VINA RESULT:      -2.9      3.378      5.105
REMARK  6 active torsions:
REMARK  status: ('A' for Active; 'I' for Inactive)
REMARK    1  A    between atoms: N_1  and  C_2 
REMARK    2  A    between atoms: N_1  and  C_4 
REMARK    3  A    between atoms: C_4  and  C_5 
REMARK    4  A    between atoms: C_4  and  C_9 
REMARK    5  A    between atoms: C_5  and  C_6 
REMARK    6  A    between atoms: C_6  and  S_7 
ROOT
HETATM    1  C   UNK     0      11.241   7.561  13.344  0.00  0.00     0.218 C 
ENDROOT
BRANCH   1   2
HETATM    2  N   UNK     0      12.377   6.527  13.437  0.00  0.00    -0.264 NA
BRANCH   2   3
HETATM    3  C   UNK     0      13.477   6.685  14.503  0.00  0.00     0.304 C 
HETATM    4  O   UNK     0      14.936   6.933  14.075  0.00  0.00    -0.192 OA
ENDBRANCH   2   3
ENDBRANCH   1   2
BRANCH   1   5
HETATM    5  C   UNK     0       9.815   7.181  13.787  0.00  0.00     0.037 C 
BRANCH   5   6
HETATM    6  C   UNK     0       8.653   7.244  12.778  0.00  0.00     0.059 C 
BRANCH   6   7
HETATM    7  S   UNK     0       7.534   8.286  12.957  0.00  0.00    -0.139 SA
HETATM    8  C   UNK     0       6.916   8.972  11.725  0.00  0.00     0.069 C 
ENDBRANCH   6   7
ENDBRANCH   5   6
ENDBRANCH   1   5
BRANCH   1   9
HETATM    9  C   UNK     0      11.529   8.976  12.808  0.00  0.00     0.199 C 
HETATM   10  O   UNK     0      12.740   9.219  11.889  0.00  0.00    -0.646 OA
HETATM   11  O   UNK     0      10.606  10.147  13.191  0.00  0.00    -0.646 OA
ENDBRANCH   1   9
TORSDOF 6
ENDMDL
MODEL 7
REMARK VINA RESULT:      -2.9      2.886      4.472
REMARK  6 active torsions:
REMARK  status: ('A' for Active; 'I' for Inactive)
REMARK    1  A    between atoms: N_1  and  C_2 
REMARK    2  A    between atoms: N_1  and  C_4 
REMARK    3  A    between atoms: C_4  and  C_5 
REMARK    4  A    between atoms: C_4  and  C_9 
REMARK    5  A    between atoms: C_5  and  C_6 
REMARK    6  A    between atoms: C_6  and  S_7 
ROOT
HETATM    1  C   UNK     0      11.682   7.252  13.630  0.00  0.00     0.218 C 
ENDROOT
BRANCH   1   2
HETATM    2  N   UNK     0      13.085   6.728  13.272  0.00  0.00    -0.264 NA
BRANCH   2   3
HETATM    3  C   UNK     0      14.201   7.717  12.887  0.00  0.00     0.304 C 
HETATM    4  O   UNK     0      14.112   8.501  11.564  0.00  0.00    -0.192 OA
ENDBRANCH   2   3
ENDBRANCH   1   2
BRANCH   1   5
HETATM    5  C   UNK     0      11.495   8.718  14.062  0.00  0.00     0.037 C 
BRANCH   5   6
HETATM    6  C   UNK     0      10.789   9.715  13.123  0.00  0.00     0.059 C 
BRANCH   6   7
HETATM    7  S   UNK     0       9.456  10.358  13.544  0.00  0.00    -0.139 SA
HETATM    8  C   UNK     0       8.187  10.121  12.704  0.00  0.00     0.069 C 
ENDBRANCH   6   7
ENDBRANCH   5   6
ENDBRANCH   1   5
BRANCH   1   9
HETATM    9  C   UNK     0      10.466   6.310  13.555  0.00  0.00     0.199 C 
HETATM   10  O   UNK     0      10.487   4.964  14.304  0.00  0.00    -0.646 OA
HETATM   11  O   UNK     0       9.229   6.713  12.733  0.00  0.00    -0.646 OA
ENDBRANCH   1   9
TORSDOF 6
ENDMDL
MODEL 8
REMARK VINA RESULT:      -2.9      3.698      5.064
REMARK  6 active torsions:
REMARK  status: ('A' for Active; 'I' for Inactive)
REMARK    1  A    between atoms: N_1  and  C_2 
REMARK    2  A    between atoms: N_1  and  C_4 
REMARK    3  A    between atoms: C_4  and  C_5 
REMARK    4  A    between atoms: C_4  and  C_9 
REMARK    5  A    between atoms: C_5  and  C_6 
REMARK    6  A    between atoms: C_6  and  S_7 
ROOT
HETATM    1  C   UNK     0       9.889   7.295  13.709  0.00  0.00     0.218 C 
ENDROOT
BRANCH   1   2
HETATM    2  N   UNK     0      10.133   6.345  14.895  0.00  0.00    -0.264 NA
BRANCH   2   3
HETATM    3  C   UNK     0      11.111   5.164  14.747  0.00  0.00     0.304 C 
HETATM    4  O   UNK     0      12.606   5.358  15.062  0.00  0.00    -0.192 OA
ENDBRANCH   2   3
ENDBRANCH   1   2
BRANCH   1   5
HETATM    5  C   UNK     0       8.602   7.167  12.872  0.00  0.00     0.037 C 
BRANCH   5   6
HETATM    6  C   UNK     0       7.427   8.132  13.113  0.00  0.00     0.059 C 
BRANCH   6   7
HETATM    7  S   UNK     0       7.122   9.244  12.094  0.00  0.00    -0.139 SA
HETATM    8  C   UNK     0       6.273   8.935  10.847  0.00  0.00     0.069 C 
ENDBRANCH   6   7
ENDBRANCH   5   6
ENDBRANCH   1   5
BRANCH   1   9
HETATM    9  C   UNK     0      10.931   8.373  13.358  0.00  0.00     0.199 C 
HETATM   10  O   UNK     0      10.549   9.864  13.428  0.00  0.00    -0.646 OA
HETATM   11  O   UNK     0      12.354   7.962  12.939  0.00  0.00    -0.646 OA
ENDBRANCH   1   9
TORSDOF 6
ENDMDL
MODEL 9
REMARK VINA RESULT:      -2.8      3.256      4.185
REMARK  6 active torsions:
REMARK  status: ('A' for Active; 'I' for Inactive)
REMARK    1  A    between atoms: N_1  and  C_2 
REMARK    2  A    between atoms: N_1  and  C_4 
REMARK    3  A    between atoms: C_4  and  C_5 
REMARK    4  A    between atoms: C_4  and  C_9 
REMARK    5  A    between atoms: C_5  and  C_6 
REMARK    6  A    between atoms: C_6  and  S_7 
ROOT
HETATM    1  C   UNK     0      12.707   8.537  14.353  0.00  0.00     0.218 C 
ENDROOT
BRANCH   1   2
HETATM    2  N   UNK     0      12.038   9.905  14.129  0.00  0.00    -0.264 NA
BRANCH   2   3
HETATM    3  C   UNK     0      11.650  10.349  12.706  0.00  0.00     0.304 C 
HETATM    4  O   UNK     0      12.552   9.982  11.512  0.00  0.00    -0.192 OA
ENDBRANCH   2   3
ENDBRANCH   1   2
BRANCH   1   5
HETATM    5  C   UNK     0      11.850   7.313  14.726  0.00  0.00     0.037 C 
BRANCH   5   6
HETATM    6  C   UNK     0      11.333   6.369  13.623  0.00  0.00     0.059 C 
BRANCH   6   7
HETATM    7  S   UNK     0       9.889   6.506  13.108  0.00  0.00    -0.139 SA
HETATM    8  C   UNK     0       8.914   7.478  13.798  0.00  0.00     0.069 C 
ENDBRANCH   6   7
ENDBRANCH   5   6
ENDBRANCH   1   5
BRANCH   1   9
HETATM    9  C   UNK     0      14.233   8.392  14.204  0.00  0.00     0.199 C 
HETATM   10  O   UNK     0      15.062   9.548  13.613  0.00  0.00    -0.646 OA
HETATM   11  O   UNK     0      14.930   7.092  14.645  0.00  0.00    -0.646 OA
ENDBRANCH   1   9
TORSDOF 6
ENDMDL
