MODEL 1
REMARK VINA RESULT:      -0.0      0.000      0.000
REMARK  10 active torsions:
REMARK  status: ('A' for Active; 'I' for Inactive)
REMARK       I    between atoms: C10_2  and  N5_4 
REMARK    1  A    between atoms: C5_6  and  N5_4 
REMARK    2  A    between atoms: C4_7  and  O4_8 
REMARK    3  A    between atoms: C2_11  and  C1_12 
REMARK    4  A    between atoms: C2_11  and  O3_15 
REMARK    5  A    between atoms: C6_18  and  C7_19 
REMARK    6  A    between atoms: C7_19  and  O7_20 
REMARK    7  A    between atoms: C7_19  and  C8_22 
REMARK    8  A    between atoms: C8_22  and  O8_23 
REMARK    9  A    between atoms: C8_22  and  C9_25 
REMARK   10  A    between atoms: C9_25  and  O9_26 
ROOT
ATOM      1  C5  SIA d           2.409  10.473  -4.550  0.00  0.00     0.145 C 
ATOM      2  C4  SIA d           2.844  11.921  -4.836  0.00  0.00     0.149 C 
ATOM      3  C3  SIA d           1.763  12.661  -5.632  0.00  0.00     0.114 C 
ATOM      4  C2  SIA d           0.442  12.571  -4.861  0.00  0.00     0.256 C 
ATOM      5  O6  SIA d           0.066  11.198  -4.665  0.00  0.00    -0.336 OA
ATOM      6  C6  SIA d           1.014  10.420  -3.898  0.00  0.00     0.182 C 
ENDROOT
BRANCH   6   7
ATOM      7  C7  SIA d           0.521   8.961  -3.819  0.00  0.00     0.180 C 
BRANCH   7   8
ATOM      8  O7  SIA d           0.814   8.314  -5.044  0.00  0.00    -0.390 OA
ATOM      9  H72 SIA d          -0.001   7.837  -5.374  0.00  0.00     0.210 HD
ENDBRANCH   7   8
BRANCH   7  10
ATOM     10  C8  SIA d          -0.996   8.889  -3.570  0.00  0.00     0.173 C 
BRANCH  10  11
ATOM     11  O8  SIA d          -1.404   9.959  -2.739  0.00  0.00    -0.391 OA
ATOM     12  H82 SIA d          -2.277  10.322  -3.065  0.00  0.00     0.210 HD
ENDBRANCH  10  11
BRANCH  10  13
ATOM     13  C9  SIA d          -1.390   7.580  -2.912  0.00  0.00     0.198 C 
BRANCH  13  14
ATOM     14  O9  SIA d          -0.238   6.761  -2.770  0.00  0.00    -0.398 OA
ATOM     15  H95 SIA d          -0.193   6.114  -3.531  0.00  0.00     0.209 HD
ENDBRANCH  13  14
ENDBRANCH  10  13
ENDBRANCH   7  10
ENDBRANCH   6   7
BRANCH   1  16
ATOM     16  N5  SIA d           3.374   9.848  -3.668  0.00  0.00    -0.352 N 
ATOM     17  C10 SIA d           4.235   8.955  -4.140  0.00  0.00     0.214 C 
ATOM     18  C11 SIA d           4.968   8.108  -3.113  0.00  0.00     0.117 C 
ATOM     19  O10 SIA d           4.451   8.796  -5.341  0.00  0.00    -0.274 OA
ATOM     20  H52 SIA d           3.391  10.091  -2.697  0.00  0.00     0.163 HD
ENDBRANCH   1  16
BRANCH   2  21
ATOM     21  O4  SIA d           4.055  11.918  -5.574  0.00  0.00    -0.393 OA
ATOM     22  H42 SIA d           4.624  12.688  -5.287  0.00  0.00     0.210 HD
ENDBRANCH   2  21
BRANCH   4  23
ATOM     23  C1  SIA d           0.610  13.263  -3.504  0.00  0.00     0.238 C 
ATOM     24  O1B SIA d           0.023  12.812  -2.495  0.00  0.00    -0.644 OA
ATOM     25  O1A SIA d           1.333  14.274  -3.442  0.00  0.00    -0.644 OA
ENDBRANCH   4  23
BRANCH   4  26
ATOM     26  O3  SIA d          -0.586  13.195  -5.552  0.00  0.00    -0.357 OA
ATOM     27  H33 SIA d          -0.370  14.164  -5.666  0.00  0.00     0.213 HD
ENDBRANCH   4  26
TORSDOF 10
ENDMDL
MODEL 2
REMARK VINA RESULT:      -0.0      7.874     10.092
REMARK  10 active torsions:
REMARK  status: ('A' for Active; 'I' for Inactive)
REMARK       I    between atoms: C10_2  and  N5_4 
REMARK    1  A    between atoms: C5_6  and  N5_4 
REMARK    2  A    between atoms: C4_7  and  O4_8 
REMARK    3  A    between atoms: C2_11  and  C1_12 
REMARK    4  A    between atoms: C2_11  and  O3_15 
REMARK    5  A    between atoms: C6_18  and  C7_19 
REMARK    6  A    between atoms: C7_19  and  O7_20 
REMARK    7  A    between atoms: C7_19  and  C8_22 
REMARK    8  A    between atoms: C8_22  and  O8_23 
REMARK    9  A    between atoms: C8_22  and  C9_25 
REMARK   10  A    between atoms: C9_25  and  O9_26 
ROOT
ATOM      1  C5  SIA d           0.787  16.066 -12.332  0.00  0.00     0.145 C 
ATOM      2  C4  SIA d           1.784  17.232 -12.459  0.00  0.00     0.149 C 
ATOM      3  C3  SIA d           2.654  17.336 -11.201  0.00  0.00     0.114 C 
ATOM      4  C2  SIA d           3.336  15.984 -10.965  0.00  0.00     0.256 C 
ATOM      5  O6  SIA d           2.354  14.946 -10.809  0.00  0.00    -0.336 OA
ATOM      6  C6  SIA d           1.498  14.751 -11.959  0.00  0.00     0.182 C 
ENDROOT
BRANCH   6   7
ATOM      7  C7  SIA d           0.458  13.660 -11.633  0.00  0.00     0.180 C 
BRANCH   7   8
ATOM      8  O7  SIA d          -0.562  14.227 -10.832  0.00  0.00    -0.390 OA
ATOM      9  H72 SIA d          -0.591  15.216 -10.979  0.00  0.00     0.210 HD
ENDBRANCH   7   8
BRANCH   7  10
ATOM     10  C8  SIA d           1.092  12.484 -10.870  0.00  0.00     0.173 C 
BRANCH  10  11
ATOM     11  O8  SIA d           2.420  12.273 -11.316  0.00  0.00    -0.391 OA
ATOM     12  H82 SIA d           2.461  11.435 -11.859  0.00  0.00     0.210 HD
ENDBRANCH  10  11
BRANCH  10  13
ATOM     13  C9  SIA d           0.302  11.204 -11.065  0.00  0.00     0.198 C 
BRANCH  13  14
ATOM     14  O9  SIA d          -0.846  11.478 -11.855  0.00  0.00    -0.398 OA
ATOM     15  H95 SIA d          -1.603  10.896 -11.557  0.00  0.00     0.209 HD
ENDBRANCH  13  14
ENDBRANCH  10  13
ENDBRANCH   7  10
ENDBRANCH   6   7
BRANCH   1  16
ATOM     16  N5  SIA d           0.089  15.892 -13.590  0.00  0.00    -0.352 N 
ATOM     17  C10 SIA d          -1.172  16.286 -13.717  0.00  0.00     0.214 C 
ATOM     18  C11 SIA d          -1.927  15.768 -14.930  0.00  0.00     0.117 C 
ATOM     19  O10 SIA d          -1.731  17.030 -12.912  0.00  0.00    -0.274 OA
ATOM     20  H52 SIA d           0.561  15.474 -14.366  0.00  0.00     0.163 HD
ENDBRANCH   1  16
BRANCH   2  21
ATOM     21  O4  SIA d           1.076  18.446 -12.647  0.00  0.00    -0.393 OA
ATOM     22  H42 SIA d           1.726  19.203 -12.722  0.00  0.00     0.210 HD
ENDBRANCH   2  21
BRANCH   4  23
ATOM     23  C1  SIA d           4.241  15.668 -12.161  0.00  0.00     0.238 C 
ATOM     24  O1B SIA d           4.371  14.486 -12.551  0.00  0.00    -0.644 OA
ATOM     25  O1A SIA d           4.836  16.610 -12.717  0.00  0.00    -0.644 OA
ENDBRANCH   4  23
BRANCH   4  26
ATOM     26  O3  SIA d           4.111  16.007  -9.816  0.00  0.00    -0.357 OA
ATOM     27  H33 SIA d           4.209  16.950  -9.499  0.00  0.00     0.213 HD
ENDBRANCH   4  26
TORSDOF 10
ENDMDL
MODEL 3
REMARK VINA RESULT:      -0.0      4.327      7.101
REMARK  10 active torsions:
REMARK  status: ('A' for Active; 'I' for Inactive)
REMARK       I    between atoms: C10_2  and  N5_4 
REMARK    1  A    between atoms: C5_6  and  N5_4 
REMARK    2  A    between atoms: C4_7  and  O4_8 
REMARK    3  A    between atoms: C2_11  and  C1_12 
REMARK    4  A    between atoms: C2_11  and  O3_15 
REMARK    5  A    between atoms: C6_18  and  C7_19 
REMARK    6  A    between atoms: C7_19  and  O7_20 
REMARK    7  A    between atoms: C7_19  and  C8_22 
REMARK    8  A    between atoms: C8_22  and  O8_23 
REMARK    9  A    between atoms: C8_22  and  C9_25 
REMARK   10  A    between atoms: C9_25  and  O9_26 
ROOT
ATOM      1  C5  SIA d           4.592  11.254  -9.133  0.00  0.00     0.145 C 
ATOM      2  C4  SIA d           4.405   9.836  -9.701  0.00  0.00     0.149 C 
ATOM      3  C3  SIA d           5.215   8.820  -8.889  0.00  0.00     0.114 C 
ATOM      4  C2  SIA d           4.809   8.936  -7.416  0.00  0.00     0.256 C 
ATOM      5  O6  SIA d           5.049  10.267  -6.932  0.00  0.00    -0.336 OA
ATOM      6  C6  SIA d           4.305  11.300  -7.620  0.00  0.00     0.182 C 
ENDROOT
BRANCH   6   7
ATOM      7  C7  SIA d           4.704  12.675  -7.046  0.00  0.00     0.180 C 
BRANCH   7   8
ATOM      8  O7  SIA d           5.953  13.054  -7.596  0.00  0.00    -0.390 OA
ATOM      9  H72 SIA d           6.478  13.562  -6.914  0.00  0.00     0.210 HD
ENDBRANCH   7   8
BRANCH   7  10
ATOM     10  C8  SIA d           4.829  12.633  -5.513  0.00  0.00     0.173 C 
BRANCH  10  11
ATOM     11  O8  SIA d           3.873  11.742  -4.970  0.00  0.00    -0.391 OA
ATOM     12  H82 SIA d           3.766  11.921  -3.992  0.00  0.00     0.210 HD
ENDBRANCH  10  11
BRANCH  10  13
ATOM     13  C9  SIA d           4.622  14.005  -4.900  0.00  0.00     0.198 C 
BRANCH  13  14
ATOM     14  O9  SIA d           4.432  14.957  -5.937  0.00  0.00    -0.398 OA
ATOM     15  H95 SIA d           3.598  15.479  -5.762  0.00  0.00     0.209 HD
ENDBRANCH  13  14
ENDBRANCH  10  13
ENDBRANCH   7  10
ENDBRANCH   6   7
BRANCH   1  16
ATOM     16  N5  SIA d           3.698  12.167  -9.817  0.00  0.00    -0.352 N 
ATOM     17  C10 SIA d           4.171  13.019 -10.719  0.00  0.00     0.214 C 
ATOM     18  C11 SIA d           3.247  14.153 -11.132  0.00  0.00     0.117 C 
ATOM     19  O10 SIA d           5.292  12.923 -11.214  0.00  0.00    -0.274 OA
ATOM     20  H52 SIA d           2.720  12.155  -9.608  0.00  0.00     0.163 HD
ENDBRANCH   1  16
BRANCH   2  21
ATOM     21  O4  SIA d           4.828   9.805 -11.054  0.00  0.00    -0.393 OA
ATOM     22  H42 SIA d           4.443   9.001 -11.507  0.00  0.00     0.210 HD
ENDBRANCH   2  21
BRANCH   4  23
ATOM     23  C1  SIA d           3.321   8.595  -7.282  0.00  0.00     0.238 C 
ATOM     24  O1B SIA d           2.615   9.196  -6.442  0.00  0.00    -0.644 OA
ATOM     25  O1A SIA d           2.849   7.711  -8.020  0.00  0.00    -0.644 OA
ENDBRANCH   4  23
BRANCH   4  26
ATOM     26  O3  SIA d           5.537   8.061  -6.624  0.00  0.00    -0.357 OA
ATOM     27  H33 SIA d           6.261   7.640  -7.171  0.00  0.00     0.213 HD
ENDBRANCH   4  26
TORSDOF 10
ENDMDL
MODEL 4
REMARK VINA RESULT:      -0.0      5.756      7.853
REMARK  10 active torsions:
REMARK  status: ('A' for Active; 'I' for Inactive)
REMARK       I    between atoms: C10_2  and  N5_4 
REMARK    1  A    between atoms: C5_6  and  N5_4 
REMARK    2  A    between atoms: C4_7  and  O4_8 
REMARK    3  A    between atoms: C2_11  and  C1_12 
REMARK    4  A    between atoms: C2_11  and  O3_15 
REMARK    5  A    between atoms: C6_18  and  C7_19 
REMARK    6  A    between atoms: C7_19  and  O7_20 
REMARK    7  A    between atoms: C7_19  and  C8_22 
REMARK    8  A    between atoms: C8_22  and  O8_23 
REMARK    9  A    between atoms: C8_22  and  C9_25 
REMARK   10  A    between atoms: C9_25  and  O9_26 
ROOT
ATOM      1  C5  SIA d          -0.566  12.230   1.206  0.00  0.00     0.145 C 
ATOM      2  C4  SIA d           0.834  11.674   0.888  0.00  0.00     0.149 C 
ATOM      3  C3  SIA d           1.467  11.060   2.141  0.00  0.00     0.114 C 
ATOM      4  C2  SIA d           0.512  10.001   2.702  0.00  0.00     0.256 C 
ATOM      5  O6  SIA d          -0.759  10.589   3.022  0.00  0.00    -0.336 OA
ATOM      6  C6  SIA d          -1.451  11.174   1.893  0.00  0.00     0.182 C 
ENDROOT
BRANCH   6   7
ATOM      7  C7  SIA d          -2.762  11.820   2.387  0.00  0.00     0.180 C 
BRANCH   7   8
ATOM      8  O7  SIA d          -2.458  13.067   2.987  0.00  0.00    -0.390 OA
ATOM      9  H72 SIA d          -3.282  13.444   3.407  0.00  0.00     0.210 HD
ENDBRANCH   7   8
BRANCH   7  10
ATOM     10  C8  SIA d          -3.477  10.933   3.421  0.00  0.00     0.173 C 
BRANCH  10  11
ATOM     11  O8  SIA d          -3.280   9.566   3.108  0.00  0.00    -0.391 OA
ATOM     12  H82 SIA d          -2.556   9.192   3.688  0.00  0.00     0.210 HD
ENDBRANCH  10  11
BRANCH  10  13
ATOM     13  C9  SIA d          -4.966  11.216   3.462  0.00  0.00     0.198 C 
BRANCH  13  14
ATOM     14  O9  SIA d          -5.266  12.277   2.567  0.00  0.00    -0.398 OA
ATOM     15  H95 SIA d          -5.351  13.132   3.078  0.00  0.00     0.209 HD
ENDBRANCH  13  14
ENDBRANCH  10  13
ENDBRANCH   7  10
ENDBRANCH   6   7
BRANCH   1  16
ATOM     16  N5  SIA d          -1.201  12.661  -0.023  0.00  0.00    -0.352 N 
ATOM     17  C10 SIA d          -1.311  13.954  -0.304  0.00  0.00     0.214 C 
ATOM     18  C11 SIA d          -2.275  14.328  -1.418  0.00  0.00     0.117 C 
ATOM     19  O10 SIA d          -0.681  14.828   0.288  0.00  0.00    -0.274 OA
ATOM     20  H52 SIA d          -1.559  11.980  -0.663  0.00  0.00     0.163 HD
ENDBRANCH   1  16
BRANCH   2  21
ATOM     21  O4  SIA d           1.662  12.718   0.402  0.00  0.00    -0.393 OA
ATOM     22  H42 SIA d           2.609  12.398   0.356  0.00  0.00     0.210 HD
ENDBRANCH   2  21
BRANCH   4  23
ATOM     23  C1  SIA d           0.325   8.896   1.657  0.00  0.00     0.238 C 
ATOM     24  O1B SIA d          -0.783   8.328   1.538  0.00  0.00    -0.644 OA
ATOM     25  O1A SIA d           1.299   8.584   0.946  0.00  0.00    -0.644 OA
ENDBRANCH   4  23
BRANCH   4  26
ATOM     26  O3  SIA d           1.017   9.433   3.861  0.00  0.00    -0.357 OA
ATOM     27  H33 SIA d           0.793   8.459   3.880  0.00  0.00     0.213 HD
ENDBRANCH   4  26
TORSDOF 10
ENDMDL
MODEL 5
REMARK VINA RESULT:      -0.0     10.806     13.283
REMARK  10 active torsions:
REMARK  status: ('A' for Active; 'I' for Inactive)
REMARK       I    between atoms: C10_2  and  N5_4 
REMARK    1  A    between atoms: C5_6  and  N5_4 
REMARK    2  A    between atoms: C4_7  and  O4_8 
REMARK    3  A    between atoms: C2_11  and  C1_12 
REMARK    4  A    between atoms: C2_11  and  O3_15 
REMARK    5  A    between atoms: C6_18  and  C7_19 
REMARK    6  A    between atoms: C7_19  and  O7_20 
REMARK    7  A    between atoms: C7_19  and  C8_22 
REMARK    8  A    between atoms: C8_22  and  O8_23 
REMARK    9  A    between atoms: C8_22  and  C9_25 
REMARK   10  A    between atoms: C9_25  and  O9_26 
ROOT
ATOM      1  C5  SIA d          -4.597   0.952   2.238  0.00  0.00     0.145 C 
ATOM      2  C4  SIA d          -4.279  -0.427   1.632  0.00  0.00     0.149 C 
ATOM      3  C3  SIA d          -3.401  -0.277   0.385  0.00  0.00     0.114 C 
ATOM      4  C2  SIA d          -2.146   0.518   0.763  0.00  0.00     0.256 C 
ATOM      5  O6  SIA d          -2.506   1.810   1.279  0.00  0.00    -0.336 OA
ATOM      6  C6  SIA d          -3.316   1.774   2.478  0.00  0.00     0.182 C 
ENDROOT
BRANCH   6   7
ATOM      7  C7  SIA d          -3.679   3.217   2.883  0.00  0.00     0.180 C 
BRANCH   7   8
ATOM      8  O7  SIA d          -4.732   3.672   2.052  0.00  0.00    -0.390 OA
ATOM      9  H72 SIA d          -4.647   4.659   1.916  0.00  0.00     0.210 HD
ENDBRANCH   7   8
BRANCH   7  10
ATOM     10  C8  SIA d          -2.479   4.168   2.728  0.00  0.00     0.173 C 
BRANCH  10  11
ATOM     11  O8  SIA d          -1.276   3.487   3.035  0.00  0.00    -0.391 OA
ATOM     12  H82 SIA d          -1.107   2.782   2.346  0.00  0.00     0.210 HD
ENDBRANCH  10  11
BRANCH  10  13
ATOM     13  C9  SIA d          -2.604   5.374   3.639  0.00  0.00     0.198 C 
BRANCH  13  14
ATOM     14  O9  SIA d          -3.841   5.308   4.336  0.00  0.00    -0.398 OA
ATOM     15  H95 SIA d          -3.892   6.057   4.997  0.00  0.00     0.209 HD
ENDBRANCH  13  14
ENDBRANCH  10  13
ENDBRANCH   7  10
ENDBRANCH   6   7
BRANCH   1  16
ATOM     16  N5  SIA d          -5.292   0.773   3.497  0.00  0.00    -0.352 N 
ATOM     17  C10 SIA d          -6.597   1.004   3.581  0.00  0.00     0.214 C 
ATOM     18  C11 SIA d          -7.177   1.126   4.981  0.00  0.00     0.117 C 
ATOM     19  O10 SIA d          -7.326   1.118   2.597  0.00  0.00    -0.274 OA
ATOM     20  H52 SIA d          -4.786   0.475   4.307  0.00  0.00     0.163 HD
ENDBRANCH   1  16
BRANCH   2  21
ATOM     21  O4  SIA d          -5.486  -1.084   1.284  0.00  0.00    -0.393 OA
ATOM     22  H42 SIA d          -5.989  -0.530   0.620  0.00  0.00     0.210 HD
ENDBRANCH   2  21
BRANCH   4  23
ATOM     23  C1  SIA d          -1.362  -0.265   1.822  0.00  0.00     0.238 C 
ATOM     24  O1B SIA d          -0.752   0.346   2.727  0.00  0.00    -0.644 OA
ATOM     25  O1A SIA d          -1.349  -1.508   1.748  0.00  0.00    -0.644 OA
ENDBRANCH   4  23
BRANCH   4  26
ATOM     26  O3  SIA d          -1.327   0.716  -0.338  0.00  0.00    -0.357 OA
ATOM     27  H33 SIA d          -1.265   1.695  -0.534  0.00  0.00     0.213 HD
ENDBRANCH   4  26
TORSDOF 10
ENDMDL
MODEL 6
REMARK VINA RESULT:      -0.0      8.889     10.562
REMARK  10 active torsions:
REMARK  status: ('A' for Active; 'I' for Inactive)
REMARK       I    between atoms: C10_2  and  N5_4 
REMARK    1  A    between atoms: C5_6  and  N5_4 
REMARK    2  A    between atoms: C4_7  and  O4_8 
REMARK    3  A    between atoms: C2_11  and  C1_12 
REMARK    4  A    between atoms: C2_11  and  O3_15 
REMARK    5  A    between atoms: C6_18  and  C7_19 
REMARK    6  A    between atoms: C7_19  and  O7_20 
REMARK    7  A    between atoms: C7_19  and  C8_22 
REMARK    8  A    between atoms: C8_22  and  O8_23 
REMARK    9  A    between atoms: C8_22  and  C9_25 
REMARK   10  A    between atoms: C9_25  and  O9_26 
ROOT
ATOM      1  C5  SIA d           1.196   6.064 -11.857  0.00  0.00     0.145 C 
ATOM      2  C4  SIA d           2.273   5.501 -10.912  0.00  0.00     0.149 C 
ATOM      3  C3  SIA d           1.626   4.862  -9.678  0.00  0.00     0.114 C 
ATOM      4  C2  SIA d           0.624   3.801 -10.147  0.00  0.00     0.256 C 
ATOM      5  O6  SIA d          -0.380   4.394 -10.986  0.00  0.00    -0.336 OA
ATOM      6  C6  SIA d           0.132   5.003 -12.195  0.00  0.00     0.182 C 
ENDROOT
BRANCH   6   7
ATOM      7  C7  SIA d          -1.037   5.652 -12.965  0.00  0.00     0.180 C 
BRANCH   7   8
ATOM      8  O7  SIA d          -1.360   6.885 -12.349  0.00  0.00    -0.390 OA
ATOM      9  H72 SIA d          -2.151   7.290 -12.806  0.00  0.00     0.210 HD
ENDBRANCH   7   8
BRANCH   7  10
ATOM     10  C8  SIA d          -2.286   4.753 -12.961  0.00  0.00     0.173 C 
BRANCH  10  11
ATOM     11  O8  SIA d          -1.905   3.390 -13.004  0.00  0.00    -0.391 OA
ATOM     12  H82 SIA d          -0.979   3.291 -12.639  0.00  0.00     0.210 HD
ENDBRANCH  10  11
BRANCH  10  13
ATOM     13  C9  SIA d          -3.188   5.047 -14.145  0.00  0.00     0.198 C 
BRANCH  13  14
ATOM     14  O9  SIA d          -2.642   6.126 -14.891  0.00  0.00    -0.398 OA
ATOM     15  H95 SIA d          -3.244   6.336 -15.662  0.00  0.00     0.209 HD
ENDBRANCH  13  14
ENDBRANCH  10  13
ENDBRANCH   7  10
ENDBRANCH   6   7
BRANCH   1  16
ATOM     16  N5  SIA d           1.823   6.520 -13.081  0.00  0.00    -0.352 N 
ATOM     17  C10 SIA d           1.977   7.818 -13.313  0.00  0.00     0.214 C 
ATOM     18  C11 SIA d           2.321   8.218 -14.738  0.00  0.00     0.117 C 
ATOM     19  O10 SIA d           1.854   8.678 -12.441  0.00  0.00    -0.274 OA
ATOM     20  H52 SIA d           2.142   5.853 -13.755  0.00  0.00     0.163 HD
ENDBRANCH   1  16
BRANCH   2  21
ATOM     21  O4  SIA d           3.140   6.546 -10.502  0.00  0.00    -0.393 OA
ATOM     22  H42 SIA d           3.984   6.510 -11.039  0.00  0.00     0.210 HD
ENDBRANCH   2  21
BRANCH   4  23
ATOM     23  C1  SIA d           1.377   2.715 -10.924  0.00  0.00     0.238 C 
ATOM     24  O1B SIA d           0.833   2.158 -11.903  0.00  0.00    -0.644 OA
ATOM     25  O1A SIA d           2.523   2.408 -10.549  0.00  0.00    -0.644 OA
ENDBRANCH   4  23
BRANCH   4  26
ATOM     26  O3  SIA d          -0.021   3.211  -9.071  0.00  0.00    -0.357 OA
ATOM     27  H33 SIA d           0.391   2.318  -8.885  0.00  0.00     0.213 HD
ENDBRANCH   4  26
TORSDOF 10
ENDMDL
MODEL 7
REMARK VINA RESULT:      -0.0     12.242     14.600
REMARK  10 active torsions:
REMARK  status: ('A' for Active; 'I' for Inactive)
REMARK       I    between atoms: C10_2  and  N5_4 
REMARK    1  A    between atoms: C5_6  and  N5_4 
REMARK    2  A    between atoms: C4_7  and  O4_8 
REMARK    3  A    between atoms: C2_11  and  C1_12 
REMARK    4  A    between atoms: C2_11  and  O3_15 
REMARK    5  A    between atoms: C6_18  and  C7_19 
REMARK    6  A    between atoms: C7_19  and  O7_20 
REMARK    7  A    between atoms: C7_19  and  C8_22 
REMARK    8  A    between atoms: C8_22  and  O8_23 
REMARK    9  A    between atoms: C8_22  and  C9_25 
REMARK   10  A    between atoms: C9_25  and  O9_26 
ROOT
ATOM      1  C5  SIA d           6.352  -3.254  -7.932  0.00  0.00     0.145 C 
ATOM      2  C4  SIA d           7.757  -3.358  -7.311  0.00  0.00     0.149 C 
ATOM      3  C3  SIA d           8.752  -2.484  -8.082  0.00  0.00     0.114 C 
ATOM      4  C2  SIA d           8.216  -1.049  -8.119  0.00  0.00     0.256 C 
ATOM      5  O6  SIA d           6.925  -1.011  -8.750  0.00  0.00    -0.336 OA
ATOM      6  C6  SIA d           5.905  -1.787  -8.078  0.00  0.00     0.182 C 
ENDROOT
BRANCH   6   7
ATOM      7  C7  SIA d           4.597  -1.710  -8.891  0.00  0.00     0.180 C 
BRANCH   7   8
ATOM      8  O7  SIA d           4.694  -2.589  -9.996  0.00  0.00    -0.390 OA
ATOM      9  H72 SIA d           3.842  -3.104 -10.089  0.00  0.00     0.210 HD
ENDBRANCH   7   8
BRANCH   7  10
ATOM     10  C8  SIA d           4.337  -0.285  -9.411  0.00  0.00     0.173 C 
BRANCH  10  11
ATOM     11  O8  SIA d           4.801   0.668  -8.473  0.00  0.00    -0.391 OA
ATOM     12  H82 SIA d           5.302   0.202  -7.744  0.00  0.00     0.210 HD
ENDBRANCH  10  11
BRANCH  10  13
ATOM     13  C9  SIA d           2.861  -0.045  -9.663  0.00  0.00     0.198 C 
BRANCH  13  14
ATOM     14  O9  SIA d           2.141  -1.242  -9.403  0.00  0.00    -0.398 OA
ATOM     15  H95 SIA d           1.669  -1.163  -8.526  0.00  0.00     0.209 HD
ENDBRANCH  13  14
ENDBRANCH  10  13
ENDBRANCH   7  10
ENDBRANCH   6   7
BRANCH   1  16
ATOM     16  N5  SIA d           5.404  -3.962  -7.095  0.00  0.00    -0.352 N 
ATOM     17  C10 SIA d           4.926  -5.141  -7.473  0.00  0.00     0.214 C 
ATOM     18  C11 SIA d           3.703  -5.650  -6.727  0.00  0.00     0.117 C 
ATOM     19  O10 SIA d           5.423  -5.813  -8.376  0.00  0.00    -0.274 OA
ATOM     20  H52 SIA d           5.109  -3.559  -6.228  0.00  0.00     0.163 HD
ENDBRANCH   1  16
BRANCH   2  21
ATOM     21  O4  SIA d           8.192  -4.708  -7.339  0.00  0.00    -0.393 OA
ATOM     22  H42 SIA d           9.182  -4.737  -7.481  0.00  0.00     0.210 HD
ENDBRANCH   2  21
BRANCH   4  23
ATOM     23  C1  SIA d           8.109  -0.520  -6.684  0.00  0.00     0.238 C 
ATOM     24  O1B SIA d           7.174   0.250  -6.370  0.00  0.00    -0.644 OA
ATOM     25  O1A SIA d           8.972  -0.872  -5.860  0.00  0.00    -0.644 OA
ENDBRANCH   4  23
BRANCH   4  26
ATOM     26  O3  SIA d           9.060  -0.216  -8.837  0.00  0.00    -0.357 OA
ATOM     27  H33 SIA d           8.956   0.724  -8.512  0.00  0.00     0.213 HD
ENDBRANCH   4  26
TORSDOF 10
ENDMDL
MODEL 8
REMARK VINA RESULT:      -0.0      7.930     10.267
REMARK  10 active torsions:
REMARK  status: ('A' for Active; 'I' for Inactive)
REMARK       I    between atoms: C10_2  and  N5_4 
REMARK    1  A    between atoms: C5_6  and  N5_4 
REMARK    2  A    between atoms: C4_7  and  O4_8 
REMARK    3  A    between atoms: C2_11  and  C1_12 
REMARK    4  A    between atoms: C2_11  and  O3_15 
REMARK    5  A    between atoms: C6_18  and  C7_19 
REMARK    6  A    between atoms: C7_19  and  O7_20 
REMARK    7  A    between atoms: C7_19  and  C8_22 
REMARK    8  A    between atoms: C8_22  and  O8_23 
REMARK    9  A    between atoms: C8_22  and  C9_25 
REMARK   10  A    between atoms: C9_25  and  O9_26 
ROOT
ATOM      1  C5  SIA d           6.082  11.805 -12.777  0.00  0.00     0.145 C 
ATOM      2  C4  SIA d           6.336  10.386 -12.235  0.00  0.00     0.149 C 
ATOM      3  C3  SIA d           6.122  10.344 -10.718  0.00  0.00     0.114 C 
ATOM      4  C2  SIA d           4.715  10.863 -10.407  0.00  0.00     0.256 C 
ATOM      5  O6  SIA d           4.555  12.205 -10.897  0.00  0.00    -0.336 OA
ATOM      6  C6  SIA d           4.711  12.345 -12.329  0.00  0.00     0.182 C 
ENDROOT
BRANCH   6   7
ATOM      7  C7  SIA d           4.578  13.834 -12.706  0.00  0.00     0.180 C 
BRANCH   7   8
ATOM      8  O7  SIA d           5.793  14.492 -12.399  0.00  0.00    -0.390 OA
ATOM      9  H72 SIA d           6.397  13.866 -11.906  0.00  0.00     0.210 HD
ENDBRANCH   7   8
BRANCH   7  10
ATOM     10  C8  SIA d           3.435  14.515 -11.933  0.00  0.00     0.173 C 
BRANCH  10  11
ATOM     11  O8  SIA d           2.373  13.601 -11.731  0.00  0.00    -0.391 OA
ATOM     12  H82 SIA d           2.629  12.942 -11.024  0.00  0.00     0.210 HD
ENDBRANCH  10  11
BRANCH  10  13
ATOM     13  C9  SIA d           2.904  15.726 -12.676  0.00  0.00     0.198 C 
BRANCH  13  14
ATOM     14  O9  SIA d           3.669  15.923 -13.857  0.00  0.00    -0.398 OA
ATOM     15  H95 SIA d           3.961  15.037 -14.217  0.00  0.00     0.209 HD
ENDBRANCH  13  14
ENDBRANCH  10  13
ENDBRANCH   7  10
ENDBRANCH   6   7
BRANCH   1  16
ATOM     16  N5  SIA d           6.137  11.782 -14.225  0.00  0.00    -0.352 N 
ATOM     17  C10 SIA d           7.189  12.278 -14.864  0.00  0.00     0.214 C 
ATOM     18  C11 SIA d           7.024  12.526 -16.355  0.00  0.00     0.117 C 
ATOM     19  O10 SIA d           8.256  12.535 -14.309  0.00  0.00    -0.274 OA
ATOM     20  H52 SIA d           5.377  11.389 -14.745  0.00  0.00     0.163 HD
ENDBRANCH   1  16
BRANCH   2  21
ATOM     21  O4  SIA d           7.664   9.992 -12.537  0.00  0.00    -0.393 OA
ATOM     22  H42 SIA d           8.212   9.996 -11.701  0.00  0.00     0.210 HD
ENDBRANCH   2  21
BRANCH   4  23
ATOM     23  C1  SIA d           3.687   9.941 -11.072  0.00  0.00     0.238 C 
ATOM     24  O1B SIA d           2.627  10.419 -11.537  0.00  0.00    -0.644 OA
ATOM     25  O1A SIA d           3.934   8.723 -11.127  0.00  0.00    -0.644 OA
ENDBRANCH   4  23
BRANCH   4  26
ATOM     26  O3  SIA d           4.476  10.882  -9.042  0.00  0.00    -0.357 OA
ATOM     27  H33 SIA d           3.966  11.708  -8.804  0.00  0.00     0.213 HD
ENDBRANCH   4  26
TORSDOF 10
ENDMDL
MODEL 9
REMARK VINA RESULT:      -0.0     12.561     14.875
REMARK  10 active torsions:
REMARK  status: ('A' for Active; 'I' for Inactive)
REMARK       I    between atoms: C10_2  and  N5_4 
REMARK    1  A    between atoms: C5_6  and  N5_4 
REMARK    2  A    between atoms: C4_7  and  O4_8 
REMARK    3  A    between atoms: C2_11  and  C1_12 
REMARK    4  A    between atoms: C2_11  and  O3_15 
REMARK    5  A    between atoms: C6_18  and  C7_19 
REMARK    6  A    between atoms: C7_19  and  O7_20 
REMARK    7  A    between atoms: C7_19  and  C8_22 
REMARK    8  A    between atoms: C8_22  and  O8_23 
REMARK    9  A    between atoms: C8_22  and  C9_25 
REMARK   10  A    between atoms: C9_25  and  O9_26 
ROOT
ATOM      1  C5  SIA d          -6.125  -0.141 -11.139  0.00  0.00     0.145 C 
ATOM      2  C4  SIA d          -6.972   1.076 -10.726  0.00  0.00     0.149 C 
ATOM      3  C3  SIA d          -7.856   0.733  -9.522  0.00  0.00     0.114 C 
ATOM      4  C2  SIA d          -6.962   0.212  -8.392  0.00  0.00     0.256 C 
ATOM      5  O6  SIA d          -6.233  -0.949  -8.823  0.00  0.00    -0.336 OA
ATOM      6  C6  SIA d          -5.345  -0.719  -9.943  0.00  0.00     0.182 C 
ENDROOT
BRANCH   6   7
ATOM      7  C7  SIA d          -4.679  -2.053 -10.338  0.00  0.00     0.180 C 
BRANCH   7   8
ATOM      8  O7  SIA d          -5.605  -2.821 -11.087  0.00  0.00    -0.390 OA
ATOM      9  H72 SIA d          -5.526  -2.586 -12.056  0.00  0.00     0.210 HD
ENDBRANCH   7   8
BRANCH   7  10
ATOM     10  C8  SIA d          -4.251  -2.861  -9.101  0.00  0.00     0.173 C 
BRANCH  10  11
ATOM     11  O8  SIA d          -3.832  -1.986  -8.070  0.00  0.00    -0.391 OA
ATOM     12  H82 SIA d          -4.379  -2.151  -7.249  0.00  0.00     0.210 HD
ENDBRANCH  10  11
BRANCH  10  13
ATOM     13  C9  SIA d          -3.116  -3.815  -9.424  0.00  0.00     0.198 C 
BRANCH  13  14
ATOM     14  O9  SIA d          -2.815  -3.731 -10.810  0.00  0.00    -0.398 OA
ATOM     15  H95 SIA d          -1.838  -3.890 -10.950  0.00  0.00     0.209 HD
ENDBRANCH  13  14
ENDBRANCH  10  13
ENDBRANCH   7  10
ENDBRANCH   6   7
BRANCH   1  16
ATOM     16  N5  SIA d          -5.190   0.254 -12.173  0.00  0.00    -0.352 N 
ATOM     17  C10 SIA d          -5.394  -0.105 -13.435  0.00  0.00     0.214 C 
ATOM     18  C11 SIA d          -4.217   0.049 -14.384  0.00  0.00     0.117 C 
ATOM     19  O10 SIA d          -6.468  -0.543 -13.846  0.00  0.00    -0.274 OA
ATOM     20  H52 SIA d          -4.386   0.799 -11.935  0.00  0.00     0.163 HD
ENDBRANCH   1  16
BRANCH   2  21
ATOM     21  O4  SIA d          -7.789   1.478 -11.814  0.00  0.00    -0.393 OA
ATOM     22  H42 SIA d          -7.257   1.448 -12.660  0.00  0.00     0.210 HD
ENDBRANCH   2  21
BRANCH   4  23
ATOM     23  C1  SIA d          -5.983   1.318  -7.982  0.00  0.00     0.238 C 
ATOM     24  O1B SIA d          -4.820   1.023  -7.627  0.00  0.00    -0.644 OA
ATOM     25  O1A SIA d          -6.381   2.497  -8.007  0.00  0.00    -0.644 OA
ENDBRANCH   4  23
BRANCH   4  26
ATOM     26  O3  SIA d          -7.713  -0.149  -7.284  0.00  0.00    -0.357 OA
ATOM     27  H33 SIA d          -8.393   0.560  -7.097  0.00  0.00     0.213 HD
ENDBRANCH   4  26
TORSDOF 10
ENDMDL
