REMARK  6 active torsions:
REMARK  status: ('A' for Active; 'I' for Inactive)
REMARK    1  A    between atoms: N_1  and  C_2 
REMARK    2  A    between atoms: N_1  and  C_4 
REMARK    3  A    between atoms: C_4  and  C_5 
REMARK    4  A    between atoms: C_4  and  C_9 
REMARK    5  A    between atoms: C_5  and  C_6 
REMARK    6  A    between atoms: C_6  and  S_7 
ROOT
HETATM    1  C   UNK     0      -0.904  -0.098   0.000  0.00  0.00     0.218 C 
ENDROOT
BRANCH   1   2
HETATM    2  N   UNK     0      -2.237  -0.868   0.000  0.00  0.00    -0.264 NA
BRANCH   2   3
HETATM    3  C   UNK     0      -3.571  -0.098   0.000  0.00  0.00     0.304 C 
HETATM    4  O   UNK     0      -4.905  -0.868   0.000  0.00  0.00    -0.192 OA
ENDBRANCH   2   3
ENDBRANCH   1   2
BRANCH   1   5
HETATM    5  C   UNK     0       0.430  -0.868   0.000  0.00  0.00     0.037 C 
BRANCH   5   6
HETATM    6  C   UNK     0       1.764  -0.098   0.000  0.00  0.00     0.059 C 
BRANCH   6   7
HETATM    7  S   UNK     0       3.097  -0.868   0.000  0.00  0.00    -0.139 SA
HETATM    8  C   UNK     0       4.431  -0.098   0.000  0.00  0.00     0.069 C 
ENDBRANCH   6   7
ENDBRANCH   5   6
ENDBRANCH   1   5
BRANCH   1   9
HETATM    9  C   UNK     0      -0.904   1.442   0.000  0.00  0.00     0.199 C 
HETATM   10  O   UNK     0       0.430   2.212   0.000  0.00  0.00    -0.646 OA
HETATM   11  O   UNK     0      -2.237   2.212   0.000  0.00  0.00    -0.646 OA
ENDBRANCH   1   9
TORSDOF 6
