MODEL 1
REMARK VINA RESULT:      -3.2      0.000      0.000
REMARK  6 active torsions:
REMARK  status: ('A' for Active; 'I' for Inactive)
REMARK    1  A    between atoms: N_1  and  C_2 
REMARK    2  A    between atoms: N_1  and  C_4 
REMARK    3  A    between atoms: C_4  and  C_5 
REMARK    4  A    between atoms: C_4  and  C_9 
REMARK    5  A    between atoms: C_5  and  C_6 
REMARK    6  A    between atoms: C_6  and  S_7 
ROOT
HETATM    1  C   UNK     0      12.597   7.713  13.818  0.00  0.00     0.218 C 
ENDROOT
BRANCH   1   2
HETATM    2  N   UNK     0      12.056   6.978  15.057  0.00  0.00    -0.264 NA
BRANCH   2   3
HETATM    3  C   UNK     0      11.782   5.464  14.997  0.00  0.00     0.304 C 
HETATM    4  O   UNK     0      10.511   4.938  14.304  0.00  0.00    -0.192 OA
ENDBRANCH   2   3
ENDBRANCH   1   2
BRANCH   1   5
HETATM    5  C   UNK     0      11.621   8.374  12.826  0.00  0.00     0.037 C 
BRANCH   5   6
HETATM    6  C   UNK     0      10.275   8.932  13.327  0.00  0.00     0.059 C 
BRANCH   6   7
HETATM    7  S   UNK     0       8.988   8.106  13.154  0.00  0.00    -0.139 SA
HETATM    8  C   UNK     0       7.736   8.752  12.533  0.00  0.00     0.069 C 
ENDBRANCH   6   7
ENDBRANCH   5   6
ENDBRANCH   1   5
BRANCH   1   9
HETATM    9  C   UNK     0      14.115   7.786  13.568  0.00  0.00     0.199 C 
HETATM   10  O   UNK     0      14.686   8.837  12.596  0.00  0.00    -0.646 OA
HETATM   11  O   UNK     0      15.062   6.811  14.290  0.00  0.00    -0.646 OA
ENDBRANCH   1   9
TORSDOF 6
ENDMDL
MODEL 2
REMARK VINA RESULT:      -3.2      2.080      2.267
REMARK  6 active torsions:
REMARK  status: ('A' for Active; 'I' for Inactive)
REMARK    1  A    between atoms: N_1  and  C_2 
REMARK    2  A    between atoms: N_1  and  C_4 
REMARK    3  A    between atoms: C_4  and  C_5 
REMARK    4  A    between atoms: C_4  and  C_9 
REMARK    5  A    between atoms: C_5  and  C_6 
REMARK    6  A    between atoms: C_6  and  S_7 
ROOT
HETATM    1  C   UNK     0      12.535   7.275  13.960  0.00  0.00     0.218 C 
ENDROOT
BRANCH   1   2
HETATM    2  N   UNK     0      11.797   6.073  13.344  0.00  0.00    -0.264 NA
BRANCH   2   3
HETATM    3  C   UNK     0      10.290   5.882  13.597  0.00  0.00     0.304 C 
HETATM    4  O   UNK     0       9.266   6.743  12.835  0.00  0.00    -0.192 OA
ENDBRANCH   2   3
ENDBRANCH   1   2
BRANCH   1   5
HETATM    5  C   UNK     0      11.771   8.275  14.848  0.00  0.00     0.037 C 
BRANCH   5   6
HETATM    6  C   UNK     0      11.497   9.703  14.341  0.00  0.00     0.059 C 
BRANCH   6   7
HETATM    7  S   UNK     0      11.185   9.945  12.854  0.00  0.00    -0.139 SA
HETATM    8  C   UNK     0      12.249  10.577  11.936  0.00  0.00     0.069 C 
ENDBRANCH   6   7
ENDBRANCH   5   6
ENDBRANCH   1   5
BRANCH   1   9
HETATM    9  C   UNK     0      14.037   7.479  13.687  0.00  0.00     0.199 C 
HETATM   10  O   UNK     0      14.515   7.907  12.287  0.00  0.00    -0.646 OA
HETATM   11  O   UNK     0      15.061   7.256  14.815  0.00  0.00    -0.646 OA
ENDBRANCH   1   9
TORSDOF 6
ENDMDL
MODEL 3
REMARK VINA RESULT:      -3.2      1.707      3.472
REMARK  6 active torsions:
REMARK  status: ('A' for Active; 'I' for Inactive)
REMARK    1  A    between atoms: N_1  and  C_2 
REMARK    2  A    between atoms: N_1  and  C_4 
REMARK    3  A    between atoms: C_4  and  C_5 
REMARK    4  A    between atoms: C_4  and  C_9 
REMARK    5  A    between atoms: C_5  and  C_6 
REMARK    6  A    between atoms: C_6  and  S_7 
ROOT
HETATM    1  C   UNK     0      11.696   7.250  13.747  0.00  0.00     0.218 C 
ENDROOT
BRANCH   1   2
HETATM    2  N   UNK     0      13.031   6.862  13.085  0.00  0.00    -0.264 NA
BRANCH   2   3
HETATM    3  C   UNK     0      14.332   7.573  13.503  0.00  0.00     0.304 C 
HETATM    4  O   UNK     0      14.884   7.394  14.929  0.00  0.00    -0.192 OA
ENDBRANCH   2   3
ENDBRANCH   1   2
BRANCH   1   5
HETATM    5  C   UNK     0      11.575   8.578  14.517  0.00  0.00     0.037 C 
BRANCH   5   6
HETATM    6  C   UNK     0      10.987   9.821  13.822  0.00  0.00     0.059 C 
BRANCH   6   7
HETATM    7  S   UNK     0       9.499  10.171  14.002  0.00  0.00    -0.139 SA
HETATM    8  C   UNK     0       8.672  10.658  12.797  0.00  0.00     0.069 C 
ENDBRANCH   6   7
ENDBRANCH   5   6
ENDBRANCH   1   5
BRANCH   1   9
HETATM    9  C   UNK     0      10.481   6.310  13.639  0.00  0.00     0.199 C 
HETATM   10  O   UNK     0       9.243   6.741  12.829  0.00  0.00    -0.646 OA
HETATM   11  O   UNK     0      10.503   4.939  14.340  0.00  0.00    -0.646 OA
ENDBRANCH   1   9
TORSDOF 6
ENDMDL
MODEL 4
REMARK VINA RESULT:      -3.2      2.876      3.805
REMARK  6 active torsions:
REMARK  status: ('A' for Active; 'I' for Inactive)
REMARK    1  A    between atoms: N_1  and  C_2 
REMARK    2  A    between atoms: N_1  and  C_4 
REMARK    3  A    between atoms: C_4  and  C_5 
REMARK    4  A    between atoms: C_4  and  C_9 
REMARK    5  A    between atoms: C_5  and  C_6 
REMARK    6  A    between atoms: C_6  and  S_7 
ROOT
HETATM    1  C   UNK     0      13.021   7.442  13.878  0.00  0.00     0.218 C 
ENDROOT
BRANCH   1   2
HETATM    2  N   UNK     0      13.079   6.204  14.790  0.00  0.00    -0.264 NA
BRANCH   2   3
HETATM    3  C   UNK     0      11.803   5.386  15.061  0.00  0.00     0.304 C 
HETATM    4  O   UNK     0      10.912   4.938  13.887  0.00  0.00    -0.192 OA
ENDBRANCH   2   3
ENDBRANCH   1   2
BRANCH   1   5
HETATM    5  C   UNK     0      14.174   7.733  12.899  0.00  0.00     0.037 C 
BRANCH   5   6
HETATM    6  C   UNK     0      14.469   9.180  12.463  0.00  0.00     0.059 C 
BRANCH   6   7
HETATM    7  S   UNK     0      14.034   9.669  11.070  0.00  0.00    -0.139 SA
HETATM    8  C   UNK     0      14.687   9.076   9.807  0.00  0.00     0.069 C 
ENDBRANCH   6   7
ENDBRANCH   5   6
ENDBRANCH   1   5
BRANCH   1   9
HETATM    9  C   UNK     0      11.810   8.391  13.944  0.00  0.00     0.199 C 
HETATM   10  O   UNK     0      11.807   9.569  14.936  0.00  0.00    -0.646 OA
HETATM   11  O   UNK     0      10.601   8.162  13.018  0.00  0.00    -0.646 OA
ENDBRANCH   1   9
TORSDOF 6
ENDMDL
MODEL 5
REMARK VINA RESULT:      -3.1      2.757      4.561
REMARK  6 active torsions:
REMARK  status: ('A' for Active; 'I' for Inactive)
REMARK    1  A    between atoms: N_1  and  C_2 
REMARK    2  A    between atoms: N_1  and  C_4 
REMARK    3  A    between atoms: C_4  and  C_5 
REMARK    4  A    between atoms: C_4  and  C_9 
REMARK    5  A    between atoms: C_5  and  C_6 
REMARK    6  A    between atoms: C_6  and  S_7 
ROOT
HETATM    1  C   UNK     0      11.224   7.821  13.188  0.00  0.00     0.218 C 
ENDROOT
BRANCH   1   2
HETATM    2  N   UNK     0      12.135   6.639  13.569  0.00  0.00    -0.264 NA
BRANCH   2   3
HETATM    3  C   UNK     0      12.857   6.631  14.929  0.00  0.00     0.304 C 
HETATM    4  O   UNK     0      14.257   7.259  15.062  0.00  0.00    -0.192 OA
ENDBRANCH   2   3
ENDBRANCH   1   2
BRANCH   1   5
HETATM    5  C   UNK     0      11.844   9.149  12.714  0.00  0.00     0.037 C 
BRANCH   5   6
HETATM    6  C   UNK     0      13.297   9.182  12.204  0.00  0.00     0.059 C 
BRANCH   6   7
HETATM    7  S   UNK     0      13.631   9.896  10.882  0.00  0.00    -0.139 SA
HETATM    8  C   UNK     0      14.762   9.361   9.983  0.00  0.00     0.069 C 
ENDBRANCH   6   7
ENDBRANCH   5   6
ENDBRANCH   1   5
BRANCH   1   9
HETATM    9  C   UNK     0       9.694   7.675  13.281  0.00  0.00     0.199 C 
HETATM   10  O   UNK     0       9.076   6.376  13.833  0.00  0.00    -0.646 OA
HETATM   11  O   UNK     0       8.781   8.827  12.823  0.00  0.00    -0.646 OA
ENDBRANCH   1   9
TORSDOF 6
ENDMDL
MODEL 6
REMARK VINA RESULT:      -3.0      2.010      3.263
REMARK  6 active torsions:
REMARK  status: ('A' for Active; 'I' for Inactive)
REMARK    1  A    between atoms: N_1  and  C_2 
REMARK    2  A    between atoms: N_1  and  C_4 
REMARK    3  A    between atoms: C_4  and  C_5 
REMARK    4  A    between atoms: C_4  and  C_9 
REMARK    5  A    between atoms: C_5  and  C_6 
REMARK    6  A    between atoms: C_6  and  S_7 
ROOT
HETATM    1  C   UNK     0      12.875   7.871  13.304  0.00  0.00     0.218 C 
ENDROOT
BRANCH   1   2
HETATM    2  N   UNK     0      13.690   8.254  12.055  0.00  0.00    -0.264 NA
BRANCH   2   3
HETATM    3  C   UNK     0      13.879   9.736  11.684  0.00  0.00     0.304 C 
HETATM    4  O   UNK     0      12.949  10.396  10.648  0.00  0.00    -0.192 OA
ENDBRANCH   2   3
ENDBRANCH   1   2
BRANCH   1   5
HETATM    5  C   UNK     0      11.403   8.306  13.427  0.00  0.00     0.037 C 
BRANCH   5   6
HETATM    6  C   UNK     0      10.333   7.289  13.866  0.00  0.00     0.059 C 
BRANCH   6   7
HETATM    7  S   UNK     0       9.080   7.068  12.999  0.00  0.00    -0.139 SA
HETATM    8  C   UNK     0       8.082   8.220  12.780  0.00  0.00     0.069 C 
ENDBRANCH   6   7
ENDBRANCH   5   6
ENDBRANCH   1   5
BRANCH   1   9
HETATM    9  C   UNK     0      13.533   7.052  14.431  0.00  0.00     0.199 C 
HETATM   10  O   UNK     0      14.864   7.522  15.048  0.00  0.00    -0.646 OA
HETATM   11  O   UNK     0      12.859   5.765  14.941  0.00  0.00    -0.646 OA
ENDBRANCH   1   9
TORSDOF 6
ENDMDL
MODEL 7
REMARK VINA RESULT:      -3.0      2.175      4.059
REMARK  6 active torsions:
REMARK  status: ('A' for Active; 'I' for Inactive)
REMARK    1  A    between atoms: N_1  and  C_2 
REMARK    2  A    between atoms: N_1  and  C_4 
REMARK    3  A    between atoms: C_4  and  C_5 
REMARK    4  A    between atoms: C_4  and  C_9 
REMARK    5  A    between atoms: C_5  and  C_6 
REMARK    6  A    between atoms: C_6  and  S_7 
ROOT
HETATM    1  C   UNK     0      11.581   7.311  13.609  0.00  0.00     0.218 C 
ENDROOT
BRANCH   1   2
HETATM    2  N   UNK     0      12.994   6.842  13.215  0.00  0.00    -0.264 NA
BRANCH   2   3
HETATM    3  C   UNK     0      14.214   7.305  14.033  0.00  0.00     0.304 C 
HETATM    4  O   UNK     0      14.883   8.657  13.720  0.00  0.00    -0.192 OA
ENDBRANCH   2   3
ENDBRANCH   1   2
BRANCH   1   5
HETATM    5  C   UNK     0      11.351   8.765  14.061  0.00  0.00     0.037 C 
BRANCH   5   6
HETATM    6  C   UNK     0      11.003   9.849  13.023  0.00  0.00     0.059 C 
BRANCH   6   7
HETATM    7  S   UNK     0      12.128  10.617  12.306  0.00  0.00    -0.139 SA
HETATM    8  C   UNK     0      12.999  11.617  13.089  0.00  0.00     0.069 C 
ENDBRANCH   6   7
ENDBRANCH   5   6
ENDBRANCH   1   5
BRANCH   1   9
HETATM    9  C   UNK     0      10.398   6.327  13.550  0.00  0.00     0.199 C 
HETATM   10  O   UNK     0       9.104   6.721  12.814  0.00  0.00    -0.646 OA
HETATM   11  O   UNK     0      10.509   4.949  14.227  0.00  0.00    -0.646 OA
ENDBRANCH   1   9
TORSDOF 6
ENDMDL
MODEL 8
REMARK VINA RESULT:      -3.0      3.582      4.584
REMARK  6 active torsions:
REMARK  status: ('A' for Active; 'I' for Inactive)
REMARK    1  A    between atoms: N_1  and  C_2 
REMARK    2  A    between atoms: N_1  and  C_4 
REMARK    3  A    between atoms: C_4  and  C_5 
REMARK    4  A    between atoms: C_4  and  C_9 
REMARK    5  A    between atoms: C_5  and  C_6 
REMARK    6  A    between atoms: C_6  and  S_7 
ROOT
HETATM    1  C   UNK     0      13.356   8.593  12.472  0.00  0.00     0.218 C 
ENDROOT
BRANCH   1   2
HETATM    2  N   UNK     0      11.981   9.283  12.425  0.00  0.00    -0.264 NA
BRANCH   2   3
HETATM    3  C   UNK     0      11.164   9.461  13.718  0.00  0.00     0.304 C 
HETATM    4  O   UNK     0      11.840  10.014  14.987  0.00  0.00    -0.192 OA
ENDBRANCH   2   3
ENDBRANCH   1   2
BRANCH   1   5
HETATM    5  C   UNK     0      14.544   9.190  11.693  0.00  0.00     0.037 C 
BRANCH   5   6
HETATM    6  C   UNK     0      14.677   8.937  10.180  0.00  0.00     0.059 C 
BRANCH   6   7
HETATM    7  S   UNK     0      14.388  10.073   9.182  0.00  0.00    -0.139 SA
HETATM    8  C   UNK     0      14.251   9.762   7.680  0.00  0.00     0.069 C 
ENDBRANCH   6   7
ENDBRANCH   5   6
ENDBRANCH   1   5
BRANCH   1   9
HETATM    9  C   UNK     0      13.545   7.307  13.298  0.00  0.00     0.199 C 
HETATM   10  O   UNK     0      14.849   7.082  14.086  0.00  0.00    -0.646 OA
HETATM   11  O   UNK     0      12.430   6.246  13.336  0.00  0.00    -0.646 OA
ENDBRANCH   1   9
TORSDOF 6
ENDMDL
MODEL 9
REMARK VINA RESULT:      -3.0      2.523      4.160
REMARK  6 active torsions:
REMARK  status: ('A' for Active; 'I' for Inactive)
REMARK    1  A    between atoms: N_1  and  C_2 
REMARK    2  A    between atoms: N_1  and  C_4 
REMARK    3  A    between atoms: C_4  and  C_5 
REMARK    4  A    between atoms: C_4  and  C_9 
REMARK    5  A    between atoms: C_5  and  C_6 
REMARK    6  A    between atoms: C_6  and  S_7 
ROOT
HETATM    1  C   UNK     0      11.836   7.994  13.665  0.00  0.00     0.218 C 
ENDROOT
BRANCH   1   2
HETATM    2  N   UNK     0      12.586   8.173  14.998  0.00  0.00    -0.264 NA
BRANCH   2   3
HETATM    3  C   UNK     0      14.108   7.942  15.062  0.00  0.00     0.304 C 
HETATM    4  O   UNK     0      14.782   6.971  14.075  0.00  0.00    -0.192 OA
ENDBRANCH   2   3
ENDBRANCH   1   2
BRANCH   1   5
HETATM    5  C   UNK     0      11.847   9.122  12.617  0.00  0.00     0.037 C 
BRANCH   5   6
HETATM    6  C   UNK     0      12.899  10.244  12.704  0.00  0.00     0.059 C 
BRANCH   6   7
HETATM    7  S   UNK     0      14.185  10.160  11.863  0.00  0.00    -0.139 SA
HETATM    8  C   UNK     0      14.449   8.925  10.981  0.00  0.00     0.069 C 
ENDBRANCH   6   7
ENDBRANCH   5   6
ENDBRANCH   1   5
BRANCH   1   9
HETATM    9  C   UNK     0      11.075   6.685  13.380  0.00  0.00     0.199 C 
HETATM   10  O   UNK     0      11.771   5.328  13.594  0.00  0.00    -0.646 OA
HETATM   11  O   UNK     0       9.620   6.735  12.882  0.00  0.00    -0.646 OA
ENDBRANCH   1   9
TORSDOF 6
ENDMDL
