MODEL 1
REMARK VINA RESULT:      -3.7      0.000      0.000
REMARK  6 active torsions:
REMARK  status: ('A' for Active; 'I' for Inactive)
REMARK    1  A    between atoms: N_1  and  C_2 
REMARK    2  A    between atoms: N_1  and  C_4 
REMARK    3  A    between atoms: C_4  and  C_5 
REMARK    4  A    between atoms: C_4  and  C_9 
REMARK    5  A    between atoms: C_5  and  C_6 
REMARK    6  A    between atoms: C_6  and  S_7 
ROOT
HETATM    1  C   UNK     0       3.453   2.884   1.244  0.00  0.00     0.218 C 
ENDROOT
BRANCH   1   2
HETATM    2  N   UNK     0       4.889   3.410   1.421  0.00  0.00    -0.264 NA
BRANCH   2   3
HETATM    3  C   UNK     0       5.428   4.506   0.484  0.00  0.00     0.304 C 
HETATM    4  O   UNK     0       6.280   5.657   1.053  0.00  0.00    -0.192 OA
ENDBRANCH   2   3
ENDBRANCH   1   2
BRANCH   1   5
HETATM    5  C   UNK     0       3.043   1.538   1.871  0.00  0.00     0.037 C 
BRANCH   5   6
HETATM    6  C   UNK     0       2.069   1.509   3.064  0.00  0.00     0.059 C 
BRANCH   6   7
HETATM    7  S   UNK     0       2.501   2.085   4.425  0.00  0.00    -0.139 SA
HETATM    8  C   UNK     0       1.473   2.228   5.562  0.00  0.00     0.069 C 
ENDBRANCH   6   7
ENDBRANCH   5   6
ENDBRANCH   1   5
BRANCH   1   9
HETATM    9  C   UNK     0       2.426   3.703   0.440  0.00  0.00     0.199 C 
HETATM   10  O   UNK     0       2.349   3.551  -1.091  0.00  0.00    -0.646 OA
HETATM   11  O   UNK     0       1.477   4.674   1.166  0.00  0.00    -0.646 OA
ENDBRANCH   1   9
TORSDOF 6
ENDMDL
MODEL 2
REMARK VINA RESULT:      -3.6      1.439      1.668
REMARK  6 active torsions:
REMARK  status: ('A' for Active; 'I' for Inactive)
REMARK    1  A    between atoms: N_1  and  C_2 
REMARK    2  A    between atoms: N_1  and  C_4 
REMARK    3  A    between atoms: C_4  and  C_5 
REMARK    4  A    between atoms: C_4  and  C_9 
REMARK    5  A    between atoms: C_5  and  C_6 
REMARK    6  A    between atoms: C_6  and  S_7 
ROOT
HETATM    1  C   UNK     0       3.197   2.517   1.551  0.00  0.00     0.218 C 
ENDROOT
BRANCH   1   2
HETATM    2  N   UNK     0       4.565   3.204   1.393  0.00  0.00    -0.264 NA
BRANCH   2   3
HETATM    3  C   UNK     0       4.698   4.720   1.631  0.00  0.00     0.304 C 
HETATM    4  O   UNK     0       4.956   5.257   3.052  0.00  0.00    -0.192 OA
ENDBRANCH   2   3
ENDBRANCH   1   2
BRANCH   1   5
HETATM    5  C   UNK     0       2.896   1.678   2.807  0.00  0.00     0.037 C 
BRANCH   5   6
HETATM    6  C   UNK     0       2.702   2.372   4.168  0.00  0.00     0.059 C 
BRANCH   6   7
HETATM    7  S   UNK     0       2.029   1.616   5.328  0.00  0.00    -0.139 SA
HETATM    8  C   UNK     0       0.509   1.371   5.309  0.00  0.00     0.069 C 
ENDBRANCH   6   7
ENDBRANCH   5   6
ENDBRANCH   1   5
BRANCH   1   9
HETATM    9  C   UNK     0       2.128   2.669   0.452  0.00  0.00     0.199 C 
HETATM   10  O   UNK     0       0.694   2.162   0.697  0.00  0.00    -0.646 OA
HETATM   11  O   UNK     0       2.492   3.328  -0.891  0.00  0.00    -0.646 OA
ENDBRANCH   1   9
TORSDOF 6
ENDMDL
MODEL 3
REMARK VINA RESULT:      -3.6      1.897      3.468
REMARK  6 active torsions:
REMARK  status: ('A' for Active; 'I' for Inactive)
REMARK    1  A    between atoms: N_1  and  C_2 
REMARK    2  A    between atoms: N_1  and  C_4 
REMARK    3  A    between atoms: C_4  and  C_5 
REMARK    4  A    between atoms: C_4  and  C_9 
REMARK    5  A    between atoms: C_5  and  C_6 
REMARK    6  A    between atoms: C_6  and  S_7 
ROOT
HETATM    1  C   UNK     0       3.205   2.648   1.419  0.00  0.00     0.218 C 
ENDROOT
BRANCH   1   2
HETATM    2  N   UNK     0       2.353   2.937   0.170  0.00  0.00    -0.264 NA
BRANCH   2   3
HETATM    3  C   UNK     0       1.394   1.861  -0.373  0.00  0.00     0.304 C 
HETATM    4  O   UNK     0       1.117   1.769  -1.886  0.00  0.00    -0.192 OA
ENDBRANCH   2   3
ENDBRANCH   1   2
BRANCH   1   5
HETATM    5  C   UNK     0       2.981   1.352   2.222  0.00  0.00     0.037 C 
BRANCH   5   6
HETATM    6  C   UNK     0       2.486   1.424   3.679  0.00  0.00     0.059 C 
BRANCH   6   7
HETATM    7  S   UNK     0       1.077   1.962   3.988  0.00  0.00    -0.139 SA
HETATM    8  C   UNK     0       0.347   1.516   5.268  0.00  0.00     0.069 C 
ENDBRANCH   6   7
ENDBRANCH   5   6
ENDBRANCH   1   5
BRANCH   1   9
HETATM    9  C   UNK     0       4.282   3.654   1.867  0.00  0.00     0.199 C 
HETATM   10  O   UNK     0       4.031   4.557   3.089  0.00  0.00    -0.646 OA
HETATM   11  O   UNK     0       5.609   3.757   1.094  0.00  0.00    -0.646 OA
ENDBRANCH   1   9
TORSDOF 6
ENDMDL
MODEL 4
REMARK VINA RESULT:      -3.5      1.764      2.647
REMARK  6 active torsions:
REMARK  status: ('A' for Active; 'I' for Inactive)
REMARK    1  A    between atoms: N_1  and  C_2 
REMARK    2  A    between atoms: N_1  and  C_4 
REMARK    3  A    between atoms: C_4  and  C_5 
REMARK    4  A    between atoms: C_4  and  C_9 
REMARK    5  A    between atoms: C_5  and  C_6 
REMARK    6  A    between atoms: C_6  and  S_7 
ROOT
HETATM    1  C   UNK     0       3.041   2.300   1.629  0.00  0.00     0.218 C 
ENDROOT
BRANCH   1   2
HETATM    2  N   UNK     0       2.200   2.299   0.340  0.00  0.00    -0.264 NA
BRANCH   2   3
HETATM    3  C   UNK     0       1.816   3.631  -0.330  0.00  0.00     0.304 C 
HETATM    4  O   UNK     0       2.683   4.198  -1.470  0.00  0.00    -0.192 OA
ENDBRANCH   2   3
ENDBRANCH   1   2
BRANCH   1   5
HETATM    5  C   UNK     0       2.823   1.207   2.692  0.00  0.00     0.037 C 
BRANCH   5   6
HETATM    6  C   UNK     0       1.723   1.377   3.757  0.00  0.00     0.059 C 
BRANCH   6   7
HETATM    7  S   UNK     0       2.085   1.893   5.162  0.00  0.00    -0.139 SA
HETATM    8  C   UNK     0       1.750   3.343   5.559  0.00  0.00     0.069 C 
ENDBRANCH   6   7
ENDBRANCH   5   6
ENDBRANCH   1   5
BRANCH   1   9
HETATM    9  C   UNK     0       4.102   3.393   1.856  0.00  0.00     0.199 C 
HETATM   10  O   UNK     0       5.252   3.571   0.847  0.00  0.00    -0.646 OA
HETATM   11  O   UNK     0       4.012   4.309   3.090  0.00  0.00    -0.646 OA
ENDBRANCH   1   9
TORSDOF 6
ENDMDL
MODEL 5
REMARK VINA RESULT:      -3.5      2.478      2.942
REMARK  6 active torsions:
REMARK  status: ('A' for Active; 'I' for Inactive)
REMARK    1  A    between atoms: N_1  and  C_2 
REMARK    2  A    between atoms: N_1  and  C_4 
REMARK    3  A    between atoms: C_4  and  C_5 
REMARK    4  A    between atoms: C_4  and  C_9 
REMARK    5  A    between atoms: C_5  and  C_6 
REMARK    6  A    between atoms: C_6  and  S_7 
ROOT
HETATM    1  C   UNK     0       2.899   2.652   3.883  0.00  0.00     0.218 C 
ENDROOT
BRANCH   1   2
HETATM    2  N   UNK     0       3.380   4.007   4.434  0.00  0.00    -0.264 NA
BRANCH   2   3
HETATM    3  C   UNK     0       3.633   5.183   3.472  0.00  0.00     0.304 C 
HETATM    4  O   UNK     0       5.047   5.434   2.917  0.00  0.00    -0.192 OA
ENDBRANCH   2   3
ENDBRANCH   1   2
BRANCH   1   5
HETATM    5  C   UNK     0       2.531   1.513   4.853  0.00  0.00     0.037 C 
BRANCH   5   6
HETATM    6  C   UNK     0       1.055   1.246   5.203  0.00  0.00     0.059 C 
BRANCH   6   7
HETATM    7  S   UNK     0       0.011   2.366   5.039  0.00  0.00    -0.139 SA
HETATM    8  C   UNK     0      -1.400   2.033   4.518  0.00  0.00     0.069 C 
ENDBRANCH   6   7
ENDBRANCH   5   6
ENDBRANCH   1   5
BRANCH   1   9
HETATM    9  C   UNK     0       2.787   2.434   2.363  0.00  0.00     0.199 C 
HETATM   10  O   UNK     0       1.414   2.147   1.725  0.00  0.00    -0.646 OA
HETATM   11  O   UNK     0       4.046   2.503   1.480  0.00  0.00    -0.646 OA
ENDBRANCH   1   9
TORSDOF 6
ENDMDL
MODEL 6
REMARK VINA RESULT:      -3.4      3.049      3.974
REMARK  6 active torsions:
REMARK  status: ('A' for Active; 'I' for Inactive)
REMARK    1  A    between atoms: N_1  and  C_2 
REMARK    2  A    between atoms: N_1  and  C_4 
REMARK    3  A    between atoms: C_4  and  C_5 
REMARK    4  A    between atoms: C_4  and  C_9 
REMARK    5  A    between atoms: C_5  and  C_6 
REMARK    6  A    between atoms: C_6  and  S_7 
ROOT
HETATM    1  C   UNK     0       3.008   2.667   3.397  0.00  0.00     0.218 C 
ENDROOT
BRANCH   1   2
HETATM    2  N   UNK     0       3.354   4.007   4.071  0.00  0.00    -0.264 NA
BRANCH   2   3
HETATM    3  C   UNK     0       3.718   5.230   3.209  0.00  0.00     0.304 C 
HETATM    4  O   UNK     0       5.183   5.478   2.802  0.00  0.00    -0.192 OA
ENDBRANCH   2   3
ENDBRANCH   1   2
BRANCH   1   5
HETATM    5  C   UNK     0       3.375   2.430   1.920  0.00  0.00     0.037 C 
BRANCH   5   6
HETATM    6  C   UNK     0       2.294   2.543   0.829  0.00  0.00     0.059 C 
BRANCH   6   7
HETATM    7  S   UNK     0       1.075   3.459   1.046  0.00  0.00    -0.139 SA
HETATM    8  C   UNK     0       1.110   4.917   0.551  0.00  0.00     0.069 C 
ENDBRANCH   6   7
ENDBRANCH   5   6
ENDBRANCH   1   5
BRANCH   1   9
HETATM    9  C   UNK     0       2.293   1.563   4.199  0.00  0.00     0.199 C 
HETATM   10  O   UNK     0       2.922   1.027   5.500  0.00  0.00    -0.646 OA
HETATM   11  O   UNK     0       0.951   0.996   3.702  0.00  0.00    -0.646 OA
ENDBRANCH   1   9
TORSDOF 6
ENDMDL
MODEL 7
REMARK VINA RESULT:      -3.1      2.131      2.532
REMARK  6 active torsions:
REMARK  status: ('A' for Active; 'I' for Inactive)
REMARK    1  A    between atoms: N_1  and  C_2 
REMARK    2  A    between atoms: N_1  and  C_4 
REMARK    3  A    between atoms: C_4  and  C_5 
REMARK    4  A    between atoms: C_4  and  C_9 
REMARK    5  A    between atoms: C_5  and  C_6 
REMARK    6  A    between atoms: C_6  and  S_7 
ROOT
HETATM    1  C   UNK     0       3.094   2.637   2.662  0.00  0.00     0.218 C 
ENDROOT
BRANCH   1   2
HETATM    2  N   UNK     0       4.066   2.694   1.470  0.00  0.00    -0.264 NA
BRANCH   2   3
HETATM    3  C   UNK     0       4.800   4.006   1.137  0.00  0.00     0.304 C 
HETATM    4  O   UNK     0       4.107   5.078   0.273  0.00  0.00    -0.192 OA
ENDBRANCH   2   3
ENDBRANCH   1   2
BRANCH   1   5
HETATM    5  C   UNK     0       2.403   1.310   3.030  0.00  0.00     0.037 C 
BRANCH   5   6
HETATM    6  C   UNK     0       0.877   1.266   3.231  0.00  0.00     0.059 C 
BRANCH   6   7
HETATM    7  S   UNK     0       0.286   1.323   4.652  0.00  0.00    -0.139 SA
HETATM    8  C   UNK     0      -0.716   2.432   5.025  0.00  0.00     0.069 C 
ENDBRANCH   6   7
ENDBRANCH   5   6
ENDBRANCH   1   5
BRANCH   1   9
HETATM    9  C   UNK     0       2.812   3.906   3.487  0.00  0.00     0.199 C 
HETATM   10  O   UNK     0       1.728   4.899   3.026  0.00  0.00    -0.646 OA
HETATM   11  O   UNK     0       3.612   4.183   4.773  0.00  0.00    -0.646 OA
ENDBRANCH   1   9
TORSDOF 6
ENDMDL
MODEL 8
REMARK VINA RESULT:      -3.1      3.336      4.765
REMARK  6 active torsions:
REMARK  status: ('A' for Active; 'I' for Inactive)
REMARK    1  A    between atoms: N_1  and  C_2 
REMARK    2  A    between atoms: N_1  and  C_4 
REMARK    3  A    between atoms: C_4  and  C_5 
REMARK    4  A    between atoms: C_4  and  C_9 
REMARK    5  A    between atoms: C_5  and  C_6 
REMARK    6  A    between atoms: C_6  and  S_7 
ROOT
HETATM    1  C   UNK     0       4.374   4.174   1.609  0.00  0.00     0.218 C 
ENDROOT
BRANCH   1   2
HETATM    2  N   UNK     0       4.360   4.986   2.918  0.00  0.00    -0.264 NA
BRANCH   2   3
HETATM    3  C   UNK     0       3.261   4.736   3.967  0.00  0.00     0.304 C 
HETATM    4  O   UNK     0       3.482   3.697   5.082  0.00  0.00    -0.192 OA
ENDBRANCH   2   3
ENDBRANCH   1   2
BRANCH   1   5
HETATM    5  C   UNK     0       5.513   4.374   0.592  0.00  0.00     0.037 C 
BRANCH   5   6
HETATM    6  C   UNK     0       5.559   5.647  -0.273  0.00  0.00     0.059 C 
BRANCH   6   7
HETATM    7  S   UNK     0       6.261   6.911   0.255  0.00  0.00    -0.139 SA
HETATM    8  C   UNK     0       5.461   7.963   1.046  0.00  0.00     0.069 C 
ENDBRANCH   6   7
ENDBRANCH   5   6
ENDBRANCH   1   5
BRANCH   1   9
HETATM    9  C   UNK     0       3.249   3.164   1.318  0.00  0.00     0.199 C 
HETATM   10  O   UNK     0       2.019   3.595   0.497  0.00  0.00    -0.646 OA
HETATM   11  O   UNK     0       3.353   1.722   1.847  0.00  0.00    -0.646 OA
ENDBRANCH   1   9
TORSDOF 6
ENDMDL
MODEL 9
REMARK VINA RESULT:      -3.1      4.334      6.361
REMARK  6 active torsions:
REMARK  status: ('A' for Active; 'I' for Inactive)
REMARK    1  A    between atoms: N_1  and  C_2 
REMARK    2  A    between atoms: N_1  and  C_4 
REMARK    3  A    between atoms: C_4  and  C_5 
REMARK    4  A    between atoms: C_4  and  C_9 
REMARK    5  A    between atoms: C_5  and  C_6 
REMARK    6  A    between atoms: C_6  and  S_7 
ROOT
HETATM    1  C   UNK     0       4.991   5.462   0.054  0.00  0.00     0.218 C 
ENDROOT
BRANCH   1   2
HETATM    2  N   UNK     0       3.676   6.062  -0.475  0.00  0.00    -0.264 NA
BRANCH   2   3
HETATM    3  C   UNK     0       2.712   5.192  -1.304  0.00  0.00     0.304 C 
HETATM    4  O   UNK     0       2.599   3.682  -1.019  0.00  0.00    -0.192 OA
ENDBRANCH   2   3
ENDBRANCH   1   2
BRANCH   1   5
HETATM    5  C   UNK     0       6.296   5.642  -0.744  0.00  0.00     0.037 C 
BRANCH   5   6
HETATM    6  C   UNK     0       6.478   6.870  -1.656  0.00  0.00     0.059 C 
BRANCH   6   7
HETATM    7  S   UNK     0       7.754   7.016  -2.504  0.00  0.00    -0.139 SA
HETATM    8  C   UNK     0       8.359   5.784  -3.204  0.00  0.00     0.069 C 
ENDBRANCH   6   7
ENDBRANCH   5   6
ENDBRANCH   1   5
BRANCH   1   9
HETATM    9  C   UNK     0       5.002   4.683   1.383  0.00  0.00     0.199 C 
HETATM   10  O   UNK     0       5.179   5.435   2.715  0.00  0.00    -0.646 OA
HETATM   11  O   UNK     0       4.837   3.152   1.378  0.00  0.00    -0.646 OA
ENDBRANCH   1   9
TORSDOF 6
ENDMDL
